Network_02R-173/scenario_67/case.raw
0,100.0,33,0,0,60.0
GRID OPTIMIZATION COMPETITION
INPUT DATA FILES ARE RAW ROP INL CON
1,'            ',138.0,1,1,1,1,0.96575122,17.009897,1.1,0.9,1.1,0.9
2,'            ',138.0,1,1,1,1,1.0194773,-15.68037,1.1,0.9,1.1,0.9
3,'            ',138.0,1,1,1,1,1.0210988,-15.875472,1.1,0.9,1.1,0.9
4,'            ',138.0,1,1,1,1,1.0326568,-15.018262,1.1,0.9,1.1,0.9
5,'            ',138.0,1,1,1,1,1.0351877,-14.083644,1.1,0.9,1.1,0.9
6,'            ',138.0,1,1,1,1,1.035158,-14.801561,1.1,0.9,1.1,0.9
7,'            ',138.0,1,1,1,1,1.0441136,-10.635406,1.1,0.9,1.1,0.9
8,'            ',138.0,1,1,1,1,1.0402088,-9.8897216,1.1,0.9,1.1,0.9
9,'            ',138.0,1,1,1,1,1.0292439,-12.657329,1.1,0.9,1.1,0.9
10,'            ',138.0,1,1,1,1,1.037411,35.705658,1.1,0.9,1.1,0.9
11,'            ',138.0,1,1,1,1,1.0325477,34.315205,1.1,0.9,1.1,0.9
12,'            ',138.0,1,1,1,1,1.0380149,35.825865,1.1,0.9,1.1,0.9
13,'            ',138.0,1,1,1,1,1.0274966,-17.143993,1.1,0.9,1.1,0.9
14,'            ',138.0,1,1,1,1,1.0244336,-17.547142,1.1,0.9,1.1,0.9
15,'            ',138.0,1,1,1,1,1.0398309,-13.368774,1.1,0.9,1.1,0.9
16,'            ',138.0,1,1,1,1,1.0312413,-12.663385,1.1,0.9,1.1,0.9
17,'            ',138.0,1,1,1,1,1.0229269,-18.328109,1.1,0.9,1.1,0.9
18,'            ',138.0,1,1,1,1,1.0397856,-5.822405,1.1,0.9,1.1,0.9
19,'            ',138.0,1,1,1,1,1.0445031,-8.923365,1.1,0.9,1.1,0.9
20,'            ',345.0,1,1,1,1,1.0496091,39.943538,1.1,0.9,1.1,0.9
21,'            ',138.0,1,1,1,1,1.0542961,38.370625,1.1,0.9,1.1,0.9
22,'            ',345.0,1,1,1,1,1.0501263,40.000185,1.1,0.9,1.1,0.9
23,'            ',138.0,1,1,1,1,1.0491539,37.532488,1.1,0.9,1.1,0.9
24,'            ',138.0,1,1,1,1,1.0310052,-15.696741,1.1,0.9,1.1,0.9
25,'            ',345.0,1,1,1,1,1.0187597,-4.3130203,1.1,0.9,1.1,0.9
26,'            ',138.0,1,1,1,1,1.0376455,-5.2641023,1.1,0.9,1.1,0.9
27,'            ',345.0,1,1,1,1,1.018252,-4.3622317,1.1,0.9,1.1,0.9
28,'            ',138.0,1,1,1,1,1.0306085,-6.9449751,1.1,0.9,1.1,0.9
29,'            ',138.0,1,1,1,1,1.0248998,-8.8170384,1.1,0.9,1.1,0.9
30,'            ',138.0,1,1,1,1,1.0321489,-6.5648343,1.1,0.9,1.1,0.9
31,'            ',138.0,1,1,1,1,1.0501706,38.068255,1.1,0.9,1.1,0.9
32,'            ',138.0,1,1,1,1,1.008786,-16.463141,1.1,0.9,1.1,0.9
33,'            ',138.0,1,1,1,1,1.0143518,-15.52216,1.1,0.9,1.1,0.9
34,'            ',138.0,1,1,1,1,1.0258001,-14.141474,1.1,0.9,1.1,0.9
35,'            ',138.0,1,1,1,1,1.0427493,-15.908481,1.1,0.9,1.1,0.9
36,'            ',138.0,1,1,1,1,1.0178348,-15.777605,1.1,0.9,1.1,0.9
37,'            ',138.0,1,1,1,1,1.0317941,-16.916553,1.1,0.9,1.1,0.9
38,'            ',138.0,1,1,1,1,1.0336118,-15.723964,1.1,0.9,1.1,0.9
39,'            ',138.0,1,1,1,1,1.0372389,-14.869217,1.1,0.9,1.1,0.9
40,'            ',138.0,1,1,1,1,1.0463523,-16.645477,1.1,0.9,1.1,0.9
41,'            ',345.0,1,1,1,1,1.0021248,-12.694829,1.1,0.9,1.1,0.9
42,'            ',138.0,1,1,1,1,1.0670681,-15.449128,1.1,0.9,1.1,0.9
43,'            ',345.0,1,1,1,1,1.0061268,-12.483383,1.1,0.9,1.1,0.9
44,'            ',138.0,1,1,1,1,1.0542087,-16.362415,1.1,0.9,1.1,0.9
45,'            ',138.0,1,1,1,1,1.0275145,-16.204734,1.1,0.9,1.1,0.9
46,'            ',138.0,1,1,1,1,1.0382034,-16.331447,1.1,0.9,1.1,0.9
47,'            ',138.0,1,1,1,1,1.038131,-17.271792,1.1,0.9,1.1,0.9
48,'            ',138.0,1,1,1,1,1.0452597,-15.976602,1.1,0.9,1.1,0.9
49,'            ',138.0,1,1,1,1,1.0359861,-17.117908,1.1,0.9,1.1,0.9
50,'            ',138.0,1,1,1,1,1.0392951,-16.422874,1.1,0.9,1.1,0.9
51,'            ',138.0,1,1,1,1,1.0466212,-15.708636,1.1,0.9,1.1,0.9
52,'            ',345.0,1,1,1,1,1.0239925,-11.425479,1.1,0.9,1.1,0.9
53,'            ',138.0,1,1,1,1,1.0239989,-14.555839,1.1,0.9,1.1,0.9
54,'            ',345.0,1,1,1,1,1.0253284,-11.084988,1.1,0.9,1.1,0.9
55,'            ',138.0,1,1,1,1,1.0397922,-14.708858,1.1,0.9,1.1,0.9
56,'            ',138.0,1,1,1,1,1.026237,-17.478702,1.1,0.9,1.1,0.9
57,'            ',138.0,1,1,1,1,1.0372293,-9.6934554,1.1,0.9,1.1,0.9
58,'            ',138.0,1,1,1,1,1.027169,33.165815,1.1,0.9,1.1,0.9
59,'            ',138.0,1,1,1,1,1.0376092,33.118234,1.1,0.9,1.1,0.9
60,'            ',138.0,1,1,1,1,1.0053329,12.708886,1.1,0.9,1.1,0.9
61,'            ',138.0,1,1,1,1,1.0544795,-14.866042,1.1,0.9,1.1,0.9
62,'            ',138.0,1,1,1,1,0.99386397,5.5575975,1.1,0.9,1.1,0.9
63,'            ',138.0,1,1,1,1,1.0480203,-6.4471579,1.1,0.9,1.1,0.9
64,'            ',138.0,1,1,1,1,1.0371151,-9.1150419,1.1,0.9,1.1,0.9
65,'            ',138.0,1,1,1,1,1.0442852,-16.816592,1.1,0.9,1.1,0.9
66,'            ',138.0,1,1,1,1,1.04,-9.5273704,1.1,0.9,1.1,0.9
67,'            ',138.0,1,1,1,1,1.0423065,37.199728,1.1,0.9,1.1,0.9
68,'            ',138.0,1,1,1,1,1.0438401,0.62863984,1.1,0.9,1.1,0.9
69,'            ',138.0,1,1,1,1,0.99368666,0.10440895,1.1,0.9,1.1,0.9
70,'            ',138.0,1,1,1,1,1.0598873,-14.49143,1.1,0.9,1.1,0.9
71,'            ',138.0,1,1,1,1,1.0355694,-15.832353,1.1,0.9,1.1,0.9
72,'            ',138.0,1,1,1,1,1.0404996,-14.799084,1.1,0.9,1.1,0.9
73,'            ',138.0,1,1,1,1,1.0371714,-13.914714,1.1,0.9,1.1,0.9
74,'            ',138.0,1,1,1,1,1.042353,-11.888363,1.1,0.9,1.1,0.9
75,'            ',138.0,1,1,1,1,1.0330351,-10.38587,1.1,0.9,1.1,0.9
76,'            ',138.0,1,1,1,1,1.0374234,34.399867,1.1,0.9,1.1,0.9
77,'            ',138.0,1,1,1,1,1.0473818,35.185094,1.1,0.9,1.1,0.9
78,'            ',138.0,1,1,1,1,1.0481049,35.716994,1.1,0.9,1.1,0.9
79,'            ',138.0,1,1,1,1,1.0507313,35.668698,1.1,0.9,1.1,0.9
80,'            ',138.0,1,1,1,1,1.0354625,-6.0808941,1.1,0.9,1.1,0.9
81,'            ',138.0,1,1,1,1,1.0466625,-7.7088253,1.1,0.9,1.1,0.9
82,'            ',138.0,1,1,1,1,1.0325334,-9.4765276,1.1,0.9,1.1,0.9
83,'            ',138.0,1,1,1,1,1.0462335,-8.1891049,1.1,0.9,1.1,0.9
84,'            ',138.0,1,1,1,1,1.0459957,-8.606042,1.1,0.9,1.1,0.9
85,'            ',138.0,1,1,1,1,1.0083315,-7.4857306,1.1,0.9,1.1,0.9
86,'            ',138.0,1,1,1,1,1.0284042,32.543195,1.1,0.9,1.1,0.9
87,'            ',138.0,1,1,1,1,1.023618,34.091763,1.1,0.9,1.1,0.9
88,'            ',138.0,1,1,1,1,1.033649,31.519796,1.1,0.9,1.1,0.9
89,'            ',138.0,1,1,1,1,1.0057219,30.224174,1.1,0.9,1.1,0.9
90,'            ',345.0,1,1,1,1,1.0358002,37.035692,1.1,0.9,1.1,0.9
91,'            ',138.0,1,1,1,1,1.0285009,34.251106,1.1,0.9,1.1,0.9
92,'            ',345.0,1,1,1,1,1.0354136,36.985947,1.1,0.9,1.1,0.9
93,'            ',138.0,1,1,1,1,1.0442926,-13.400941,1.1,0.9,1.1,0.9
94,'            ',138.0,1,1,1,1,1.0399964,35.879996,1.1,0.9,1.1,0.9
95,'            ',138.0,1,1,1,1,1.0291573,33.005349,1.1,0.9,1.1,0.9
96,'            ',138.0,1,1,1,1,1.0525656,-12.146752,1.1,0.9,1.1,0.9
97,'            ',345.0,1,1,1,1,1.0401862,37.849,1.1,0.9,1.1,0.9
98,'            ',138.0,1,1,1,1,1.0536895,35.306337,1.1,0.9,1.1,0.9
99,'            ',345.0,1,1,1,1,1.0397061,37.812692,1.1,0.9,1.1,0.9
100,'            ',138.0,1,1,1,1,1.0329333,32.953038,1.1,0.9,1.1,0.9
101,'            ',138.0,1,1,1,1,1.0363724,33.090833,1.1,0.9,1.1,0.9
102,'            ',138.0,1,1,1,1,1.0104443,-2.6715396,1.1,0.9,1.1,0.9
103,'            ',138.0,1,1,1,1,1.0279594,-4.4137929,1.1,0.9,1.1,0.9
104,'            ',138.0,1,1,1,1,1.0286903,-11.682449,1.1,0.9,1.1,0.9
105,'            ',138.0,1,1,1,1,1.0251329,33.504147,1.1,0.9,1.1,0.9
106,'            ',345.0,1,1,1,1,1.0326635,37.927512,1.1,0.9,1.1,0.9
107,'            ',138.0,1,1,1,1,1.0573205,36.180543,1.1,0.9,1.1,0.9
108,'            ',345.0,1,1,1,1,1.0341518,38.085019,1.1,0.9,1.1,0.9
109,'            ',138.0,1,1,1,1,1.0480259,-12.836021,1.1,0.9,1.1,0.9
110,'            ',138.0,1,1,1,1,1.0312561,-8.7800489,1.1,0.9,1.1,0.9
111,'            ',138.0,1,1,1,1,1.0216782,-10.09268,1.1,0.9,1.1,0.9
112,'            ',138.0,1,1,1,1,1.0265606,-8.8659624,1.1,0.9,1.1,0.9
113,'            ',138.0,1,1,1,1,1.0304265,-8.4448114,1.1,0.9,1.1,0.9
114,'            ',138.0,1,1,1,1,1.0251157,-9.4145838,1.1,0.9,1.1,0.9
115,'            ',138.0,1,1,1,1,1.0445551,34.443623,1.1,0.9,1.1,0.9
116,'            ',138.0,1,1,1,1,1.0498842,32.843931,1.1,0.9,1.1,0.9
117,'            ',138.0,1,1,1,1,1.0394151,-5.1622303,1.1,0.9,1.1,0.9
118,'            ',138.0,1,1,1,1,1.0460936,-16.67294,1.1,0.9,1.1,0.9
119,'            ',345.0,1,1,1,1,1.040437,-11.116459,1.1,0.9,1.1,0.9
120,'            ',138.0,1,1,1,1,1.0691907,-13.803786,1.1,0.9,1.1,0.9
121,'            ',345.0,1,1,1,1,1.0414159,-11.024706,1.1,0.9,1.1,0.9
122,'            ',138.0,1,1,1,1,1.0487752,-15.328764,1.1,0.9,1.1,0.9
123,'            ',138.0,1,1,1,1,1.0323002,-15.799114,1.1,0.9,1.1,0.9
124,'            ',138.0,1,1,1,1,1.0388588,-15.017778,1.1,0.9,1.1,0.9
125,'            ',138.0,1,1,1,1,1.0283953,-16.346819,1.1,0.9,1.1,0.9
126,'            ',138.0,1,1,1,1,1.0402816,31.492753,1.1,0.9,1.1,0.9
127,'            ',138.0,1,1,1,1,1.0360928,-13.16094,1.1,0.9,1.1,0.9
128,'            ',138.0,1,1,1,1,0.98833834,14.982033,1.1,0.9,1.1,0.9
129,'            ',138.0,1,1,1,1,0.98245516,19.45168,1.1,0.9,1.1,0.9
130,'            ',138.0,1,1,1,1,1.0329552,35.506564,1.1,0.9,1.1,0.9
131,'            ',138.0,1,1,1,1,1.0467517,33.234441,1.1,0.9,1.1,0.9
132,'            ',138.0,1,1,1,1,1.044929,-12.20907,1.1,0.9,1.1,0.9
133,'            ',138.0,1,1,1,1,1.04192,-10.779308,1.1,0.9,1.1,0.9
134,'            ',138.0,1,1,1,1,1.0614921,-10.589232,1.1,0.9,1.1,0.9
135,'            ',345.0,1,1,1,1,1.04,-8.3128612,1.1,0.9,1.1,0.9
136,'            ',138.0,1,1,1,1,1.0730493,-9.6071263,1.1,0.9,1.1,0.9
137,'            ',345.0,1,1,1,1,1.0398563,-8.3324109,1.1,0.9,1.1,0.9
138,'            ',138.0,1,1,1,1,1.0487788,-15.158694,1.1,0.9,1.1,0.9
139,'            ',138.0,1,1,1,1,1.044376,-8.9931381,1.1,0.9,1.1,0.9
140,'            ',138.0,1,1,1,1,1.0348484,-10.285659,1.1,0.9,1.1,0.9
141,'            ',138.0,1,1,1,1,1.0420556,-9.4612188,1.1,0.9,1.1,0.9
142,'            ',138.0,1,1,1,1,1.0061433,7.8132705,1.1,0.9,1.1,0.9
143,'            ',138.0,1,1,1,1,1.0099525,31.354707,1.1,0.9,1.1,0.9
144,'            ',138.0,1,1,1,1,1.0228723,-16.635671,1.1,0.9,1.1,0.9
145,'            ',138.0,1,1,1,1,1.0119885,-16.539298,1.1,0.9,1.1,0.9
146,'            ',138.0,1,1,1,1,1.0399391,-11.382818,1.1,0.9,1.1,0.9
147,'            ',138.0,1,1,1,1,1.0374925,-12.647128,1.1,0.9,1.1,0.9
148,'            ',138.0,1,1,1,1,1.0397187,-10.922479,1.1,0.9,1.1,0.9
149,'            ',138.0,1,1,1,1,1.0359486,-11.354428,1.1,0.9,1.1,0.9
150,'            ',138.0,1,1,1,1,1.053296,-10.169169,1.1,0.9,1.1,0.9
151,'            ',345.0,1,1,1,1,1.0429845,-7.6260338,1.1,0.9,1.1,0.9
152,'            ',138.0,1,1,1,1,1.0611955,-9.3586118,1.1,0.9,1.1,0.9
153,'            ',345.0,1,1,1,1,1.0424796,-7.6856808,1.1,0.9,1.1,0.9
154,'            ',138.0,1,1,1,1,1.0493877,-10.183378,1.1,0.9,1.1,0.9
155,'            ',138.0,1,1,1,1,1.0501888,-10.37394,1.1,0.9,1.1,0.9
156,'            ',138.0,1,1,1,1,1.0355,-18.38011,1.1,0.9,1.1,0.9
157,'            ',138.0,1,1,1,1,1.0435952,-13.540012,1.1,0.9,1.1,0.9
158,'            ',138.0,1,1,1,1,1.047392,-13.687423,1.1,0.9,1.1,0.9
159,'            ',138.0,1,1,1,1,1.0435581,-1.1203193,1.1,0.9,1.1,0.9
160,'            ',138.0,1,1,1,1,1.0460538,-14.731113,1.1,0.9,1.1,0.9
161,'            ',138.0,1,1,1,1,1.0137278,-8.376535,1.1,0.9,1.1,0.9
162,'            ',138.0,1,1,1,1,1.0260616,-14.781928,1.1,0.9,1.1,0.9
163,'            ',138.0,1,1,1,1,1.0211039,-6.9091959,1.1,0.9,1.1,0.9
164,'            ',138.0,1,1,1,1,1.0066507,10.976029,1.1,0.9,1.1,0.9
165,'            ',138.0,1,1,1,1,1.0409137,-9.5515954,1.1,0.9,1.1,0.9
166,'            ',138.0,1,1,1,1,1.0413257,-9.6658597,1.1,0.9,1.1,0.9
167,'            ',138.0,1,1,1,1,1.0344355,-7.4288084,1.1,0.9,1.1,0.9
168,'            ',138.0,1,1,1,1,1.04,-12.036831,1.1,0.9,1.1,0.9
169,'            ',138.0,1,1,1,1,0.97394319,22.334603,1.1,0.9,1.1,0.9
170,'            ',138.0,1,1,1,1,1.0373907,36.279913,1.1,0.9,1.1,0.9
171,'            ',138.0,1,1,1,1,1.0423688,36.382058,1.1,0.9,1.1,0.9
172,'            ',138.0,1,1,1,1,1.0240536,33.449704,1.1,0.9,1.1,0.9
173,'            ',138.0,1,1,1,1,1.0263654,33.035341,1.1,0.9,1.1,0.9
174,'            ',138.0,1,1,1,1,1.0378563,36.162817,1.1,0.9,1.1,0.9
175,'            ',138.0,1,1,1,1,1.0435721,36.217966,1.1,0.9,1.1,0.9
176,'            ',138.0,1,1,1,1,1.0415,33.153305,1.1,0.9,1.1,0.9
177,'            ',138.0,1,1,1,1,1.030405,32.947966,1.1,0.9,1.1,0.9
178,'            ',138.0,1,1,1,1,1.0290306,34.0027,1.1,0.9,1.1,0.9
179,'            ',138.0,1,1,1,1,1.0354987,35.44902,1.1,0.9,1.1,0.9
180,'            ',138.0,1,1,1,1,1.0423264,-8.2940205,1.1,0.9,1.1,0.9
181,'            ',138.0,1,1,1,1,1.04,-9.7200153,1.1,0.9,1.1,0.9
182,'            ',138.0,1,1,1,1,1.0418112,-1.634559,1.1,0.9,1.1,0.9
183,'            ',138.0,1,1,1,1,1.029462,-7.4787777,1.1,0.9,1.1,0.9
184,'            ',138.0,1,1,1,1,1.0259043,-5.3338632,1.1,0.9,1.1,0.9
185,'            ',138.0,1,1,1,1,1.0362436,-2.6772865,1.1,0.9,1.1,0.9
186,'            ',138.0,1,1,1,1,1.0246004,-4.4850827,1.1,0.9,1.1,0.9
187,'            ',138.0,1,1,1,1,1.0258536,-5.1304845,1.1,0.9,1.1,0.9
188,'            ',138.0,1,1,1,1,1.0300783,-7.3802525,1.1,0.9,1.1,0.9
189,'            ',138.0,1,1,1,1,1.0261045,-8.0252802,1.1,0.9,1.1,0.9
190,'            ',345.0,1,1,1,1,1.0079787,-5.1188832,1.1,0.9,1.1,0.9
191,'            ',138.0,1,1,1,1,1.0370829,-5.5842156,1.1,0.9,1.1,0.9
192,'            ',345.0,1,1,1,1,1.0075864,-5.1651475,1.1,0.9,1.1,0.9
193,'            ',138.0,1,1,1,1,1.025371,-8.0787346,1.1,0.9,1.1,0.9
194,'            ',138.0,1,1,1,1,1.0348212,-17.929748,1.1,0.9,1.1,0.9
195,'            ',138.0,1,1,1,1,1.041209,-10.031685,1.1,0.9,1.1,0.9
196,'            ',138.0,1,1,1,1,1.0282244,-9.3711836,1.1,0.9,1.1,0.9
197,'            ',138.0,1,1,1,1,1.0505378,-12.782138,1.1,0.9,1.1,0.9
198,'            ',138.0,1,1,1,1,1.0384766,-10.83744,1.1,0.9,1.1,0.9
199,'            ',138.0,1,1,1,1,1.04,-12.847982,1.1,0.9,1.1,0.9
200,'            ',138.0,1,1,1,1,1.04,-13.669618,1.1,0.9,1.1,0.9
...
0 / END OF BUS DATA BEGIN LOAD DATA
1,'1',1,1,1,20.714459,3.8230097,0.0,0.0,0.0,0.0,1,1,0
2,'1',1,1,1,72.609644,20.331891,0.0,0.0,0.0,0.0,1,1,0
3,'1',1,1,1,37.160851,8.5020265,0.0,0.0,0.0,0.0,1,1,0
4,'1',1,1,1,51.625492,2.2514868,0.0,0.0,0.0,0.0,1,1,0
5,'1',1,1,1,58.426556,9.9458807,0.0,0.0,0.0,0.0,1,1,0
6,'1',1,1,1,38.534584,3.4053439,0.0,0.0,0.0,0.0,1,1,0
7,'1',1,1,1,33.247569,11.483538,0.0,0.0,0.0,0.0,1,1,0
8,'1',1,1,1,47.429792,5.1836378,0.0,0.0,0.0,0.0,1,1,0
9,'1',1,1,1,16.465405,7.071849,0.0,0.0,0.0,0.0,1,1,0
10,'1',1,1,1,30.304361,9.241952,0.0,0.0,0.0,0.0,1,1,0
11,'1',1,1,1,11.737815,2.8578002,0.0,0.0,0.0,0.0,1,1,0
12,'1',1,1,1,30.370909,1.9993701,0.0,0.0,0.0,0.0,1,1,0
13,'1',1,1,1,40.506845,7.0954853,0.0,0.0,0.0,0.0,1,1,0
14,'1',1,1,1,98.629486,39.507101,0.0,0.0,0.0,0.0,1,1,0
15,'1',1,1,1,75.326293,9.1389043,0.0,0.0,0.0,0.0,1,1,0
16,'1',1,1,1,20.573601,7.4844107,0.0,0.0,0.0,0.0,1,1,0
17,'1',1,1,1,25.99039,10.604376,0.0,0.0,0.0,0.0,1,1,0
18,'1',1,1,1,75.305288,19.365294,0.0,0.0,0.0,0.0,1,1,0
19,'1',1,1,1,44.211425,9.0912517,0.0,0.0,0.0,0.0,1,1,0
21,'1',1,1,1,40.105897,13.065426,0.0,0.0,0.0,0.0,1,1,0
23,'1',1,1,1,21.800189,4.6657303,0.0,0.0,0.0,0.0,1,1,0
24,'1',1,1,1,33.543716,20.982787,0.0,0.0,0.0,0.0,1,1,0
27,'1',1,1,1,79.976924,25.977154,0.0,0.0,0.0,0.0,1,1,0
28,'1',1,1,1,50.063178,16.867446,0.0,0.0,0.0,0.0,1,1,0
29,'1',1,1,1,38.540039,8.0888117,0.0,0.0,0.0,0.0,1,1,0
30,'1',1,1,1,40.938805,2.157395,0.0,0.0,0.0,0.0,1,1,0
31,'1',1,1,1,67.61622,15.075439,0.0,0.0,0.0,0.0,1,1,0
32,'1',1,1,1,48.580558,16.584842,0.0,0.0,0.0,0.0,1,1,0
33,'1',1,1,1,141.03546,79.579239,0.0,0.0,0.0,0.0,1,1,0
34,'1',1,1,1,47.054373,9.9573247,0.0,0.0,0.0,0.0,1,1,0
35,'1',1,1,1,70.742343,7.4790063,0.0,0.0,0.0,0.0,1,1,0
36,'1',1,1,1,83.023053,31.510694,0.0,0.0,0.0,0.0,1,1,0
37,'1',1,1,1,133.02819,29.848523,0.0,0.0,0.0,0.0,1,1,0
38,'1',1,1,1,65.545667,13.938956,0.0,0.0,0.0,0.0,1,1,0
39,'1',1,1,1,91.693052,34.756021,0.0,0.0,0.0,0.0,1,1,0
40,'1',1,1,1,132.60455,16.260353,0.0,0.0,0.0,0.0,1,1,0
42,'1',1,1,1,72.955749,22.849062,0.0,0.0,0.0,0.0,1,1,0
44,'1',1,1,1,64.748251,4.1879993,0.0,0.0,0.0,0.0,1,1,0
45,'1',1,1,1,191.65192,11.705354,0.0,0.0,0.0,0.0,1,1,0
46,'1',1,1,1,79.174137,16.630105,0.0,0.0,0.0,0.0,1,1,0
47,'1',1,1,1,58.080145,6.0560695,0.0,0.0,0.0,0.0,1,1,0
48,'1',1,1,1,50.05082,4.9124113,0.0,0.0,0.0,0.0,1,1,0
49,'1',1,1,1,91.083536,10.827377,0.0,0.0,0.0,0.0,1,1,0
50,'1',1,1,1,59.945542,37.148674,0.0,0.0,0.0,0.0,1,1,0
51,'1',1,1,1,63.86142,13.98503,0.0,0.0,0.0,0.0,1,1,0
53,'1',1,1,1,131.09179,33.730595,0.0,0.0,0.0,0.0,1,1,0
55,'1',1,1,1,28.549011,3.0942045,0.0,0.0,0.0,0.0,1,1,0
56,'1',1,1,1,20.617662,2.1348397,0.0,0.0,0.0,0.0,1,1,0
57,'1',1,1,1,14.10318,4.3571747,0.0,0.0,0.0,0.0,1,1,0
58,'1',1,1,1,28.748815,23.504249,0.0,0.0,0.0,0.0,1,1,0
59,'1',1,1,1,31.002205,12.623981,0.0,0.0,0.0,0.0,1,1,0
60,'1',1,1,1,18.11868,7.2620635,0.0,0.0,0.0,0.0,1,1,0
61,'1',1,1,1,29.182672,6.3330463,0.0,0.0,0.0,0.0,1,1,0
62,'1',1,1,1,23.219031,2.851164,0.0,0.0,0.0,0.0,1,1,0
63,'1',1,1,1,51.70471,12.364976,0.0,0.0,0.0,0.0,1,1,0
64,'1',1,1,1,24.16573,6.1224408,0.0,0.0,0.0,0.0,1,1,0
65,'1',1,1,1,42.067685,6.0507226,0.0,0.0,0.0,0.0,1,1,0
66,'1',1,1,1,25.799754,7.4684032,0.0,0.0,0.0,0.0,1,1,0
67,'1',1,1,1,19.073196,4.7902797,0.0,0.0,0.0,0.0,1,1,0
68,'1',1,1,1,18.937582,3.6185347,0.0,0.0,0.0,0.0,1,1,0
69,'1',1,1,1,23.08846,5.8265794,0.0,0.0,0.0,0.0,1,1,0
70,'1',1,1,1,24.70489,2.5070354,0.0,0.0,0.0,0.0,1,1,0
71,'1',1,1,1,44.164631,6.199636,0.0,0.0,0.0,0.0,1,1,0
72,'1',1,1,1,40.124806,6.9990469,0.0,0.0,0.0,0.0,1,1,0
73,'1',1,1,1,54.470607,8.0062761,0.0,0.0,0.0,0.0,1,1,0
74,'1',1,1,1,43.221598,18.305774,0.0,0.0,0.0,0.0,1,1,0
75,'1',1,1,1,29.284146,6.0362401,0.0,0.0,0.0,0.0,1,1,0
76,'1',1,1,1,30.143164,3.015802,0.0,0.0,0.0,0.0,1,1,0
77,'1',1,1,1,44.051428,14.093738,0.0,0.0,0.0,0.0,1,1,0
78,'1',1,1,1,44.832846,14.965793,0.0,0.0,0.0,0.0,1,1,0
79,'1',1,1,1,41.186418,8.2748875,0.0,0.0,0.0,0.0,1,1,0
80,'1',1,1,1,29.315678,13.483943,0.0,0.0,0.0,0.0,1,1,0
81,'1',1,1,1,40.984237,13.303923,0.0,0.0,0.0,0.0,1,1,0
82,'1',1,1,1,73.107504,15.801835,0.0,0.0,0.0,0.0,1,1,0
83,'1',1,1,1,66.186156,16.313624,0.0,0.0,0.0,0.0,1,1,0
84,'1',1,1,1,38.143219,7.866324,0.0,0.0,0.0,0.0,1,1,0
85,'1',1,1,1,25.304462,9.4701065,0.0,0.0,0.0,0.0,1,1,0
86,'1',1,1,1,39.47864,7.216574,0.0,0.0,0.0,0.0,1,1,0
87,'1',1,1,1,48.10871,16.500098,0.0,0.0,0.0,0.0,1,1,0
88,'1',1,1,1,33.062406,7.0111671,0.0,0.0,0.0,0.0,1,1,0
89,'1',1,1,1,61.985469,14.494153,0.0,0.0,0.0,0.0,1,1,0
92,'1',1,1,1,87.375596,14.719347,0.0,0.0,0.0,0.0,1,1,0
93,'1',1,1,1,28.346647,3.7380051,0.0,0.0,0.0,0.0,1,1,0
94,'1',1,1,1,34.666808,4.5557831,0.0,0.0,0.0,0.0,1,1,0
95,'1',1,1,1,29.630483,14.893427,0.0,0.0,0.0,0.0,1,1,0
96,'1',1,1,1,23.877353,4.458319,0.0,0.0,0.0,0.0,1,1,0
99,'1',1,1,1,72.572201,28.422557,0.0,0.0,0.0,0.0,1,1,0
100,'1',1,1,1,22.526636,7.0940809,0.0,0.0,0.0,0.0,1,1,0
101,'1',1,1,1,34.795482,17.628672,0.0,0.0,0.0,0.0,1,1,0
102,'1',1,1,1,20.876063,5.5894693,0.0,0.0,0.0,0.0,1,1,0
103,'1',1,1,1,25.222676,7.2026807,0.0,0.0,0.0,0.0,1,1,0
104,'1',1,1,1,19.839596,4.5487322,0.0,0.0,0.0,0.0,1,1,0
105,'1',1,1,1,29.813896,8.5453755,0.0,0.0,0.0,0.0,1,1,0
107,'1',1,1,1,58.029483,1.0290759,0.0,0.0,0.0,0.0,1,1,0
109,'1',1,1,1,36.718253,9.9562199,0.0,0.0,0.0,0.0,1,1,0
110,'1',1,1,1,35.154752,5.3569567,0.0,0.0,0.0,0.0,1,1,0
111,'1',1,1,1,71.699361,15.64243,0.0,0.0,0.0,0.0,1,1,0
112,'1',1,1,1,66.991041,39.658809,0.0,0.0,0.0,0.0,1,1,0
113,'1',1,1,1,40.997101,16.598404,0.0,0.0,0.0,0.0,1,1,0
114,'1',1,1,1,25.820494,7.8492439,0.0,0.0,0.0,0.0,1,1,0
115,'1',1,1,1,49.817585,9.5385487,0.0,0.0,0.0,0.0,1,1,0
116,'1',1,1,1,65.291453,13.61527,0.0,0.0,0.0,0.0,1,1,0
117,'1',1,1,1,49.47713,5.5644026,0.0,0.0,0.0,0.0,1,1,0
118,'1',1,1,1,55.529596,6.8584441,0.0,0.0,0.0,0.0,1,1,0
120,'1',1,1,1,56.291885,15.307989,0.0,0.0,0.0,0.0,1,1,0
122,'1',1,1,1,43.55599,7.2802643,0.0,0.0,0.0,0.0,1,1,0
123,'1',1,1,1,51.189565,24.457636,0.0,0.0,0.0,0.0,1,1,0
124,'1',1,1,1,61.837672,5.4118237,0.0,0.0,0.0,0.0,1,1,0
125,'1',1,1,1,55.466721,20.807151,0.0,0.0,0.0,0.0,1,1,0
126,'1',1,1,1,26.412503,2.6709347,0.0,0.0,0.0,0.0,1,1,0
127,'1',1,1,1,21.360381,11.75336,0.0,0.0,0.0,0.0,1,1,0
128,'1',1,1,1,25.712702,1.741009,0.0,0.0,0.0,0.0,1,1,0
129,'1',1,1,1,38.914974,11.640302,0.0,0.0,0.0,0.0,1,1,0
130,'1',1,1,1,20.25955,8.9670292,0.0,0.0,0.0,0.0,1,1,0
131,'1',1,1,1,20.252835,4.4239765,0.0,0.0,0.0,0.0,1,1,0
132,'1',1,1,1,33.713705,12.399392,0.0,0.0,0.0,0.0,1,1,0
133,'1',1,1,1,12.291888,5.6301656,0.0,0.0,0.0,0.0,1,1,0
134,'1',1,1,1,28.443358,3.183545,0.0,0.0,0.0,0.0,1,1,0
137,'1',1,1,1,32.940582,6.3288963,0.0,0.0,0.0,0.0,1,1,0
138,'1',1,1,1,38.118202,11.32339,0.0,0.0,0.0,0.0,1,1,0
139,'1',1,1,1,53.084744,10.53262,0.0,0.0,0.0,0.0,1,1,0
140,'1',1,1,1,47.919396,14.977786,0.0,0.0,0.0,0.0,1,1,0
141,'1',1,1,1,57.787979,28.633489,0.0,0.0,0.0,0.0,1,1,0
142,'1',1,1,1,17.630782,3.4747002,0.0,0.0,0.0,0.0,1,1,0
143,'1',1,1,1,37.052953,18.537183,0.0,0.0,0.0,0.0,1,1,0
144,'1',1,1,1,26.247268,6.189641,0.0,0.0,0.0,0.0,1,1,0
145,'1',1,1,1,72.807951,27.682098,0.0,0.0,0.0,0.0,1,1,0
146,'1',1,1,1,36.432618,10.934939,0.0,0.0,0.0,0.0,1,1,0
147,'1',1,1,1,49.911175,16.217336,0.0,0.0,0.0,0.0,1,1,0
148,'1',1,1,1,60.300141,29.029493,0.0,0.0,0.0,0.0,1,1,0
149,'1',1,1,1,71.905349,11.13998,0.0,0.0,0.0,0.0,1,1,0
150,'1',1,1,1,118.78698,36.936617,0.0,0.0,0.0,0.0,1,1,0
153,'1',1,1,1,117.38439,26.833179,0.0,0.0,0.0,0.0,1,1,0
154,'1',1,1,1,37.047316,7.3712041,0.0,0.0,0.0,0.0,1,1,0
155,'1',1,1,1,58.337163,9.6335714,0.0,0.0,0.0,0.0,1,1,0
156,'1',1,1,1,47.929332,18.298917,0.0,0.0,0.0,0.0,1,1,0
157,'1',1,1,1,25.876151,17.747985,0.0,0.0,0.0,0.0,1,1,0
158,'1',1,1,1,76.001861,12.738866,0.0,0.0,0.0,0.0,1,1,0
159,'1',1,1,1,52.247229,10.278246,0.0,0.0,0.0,0.0,1,1,0
160,'1',1,1,1,25.922215,10.535217,0.0,0.0,0.0,0.0,1,1,0
161,'1',1,1,1,18.746344,3.7337932,0.0,0.0,0.0,0.0,1,1,0
162,'1',1,1,1,20.82545,6.8981035,0.0,0.0,0.0,0.0,1,1,0
163,'1',1,1,1,23.701404,2.4946856,0.0,0.0,0.0,0.0,1,1,0
164,'1',1,1,1,26.22159,3.7327982,0.0,0.0,0.0,0.0,1,1,0
165,'1',1,1,1,81.962261,9.1310309,0.0,0.0,0.0,0.0,1,1,0
166,'1',1,1,1,51.234226,11.336412,0.0,0.0,0.0,0.0,1,1,0
167,'1',1,1,1,28.349616,6.9716268,0.0,0.0,0.0,0.0,1,1,0
168,'1',1,1,1,51.078704,16.614336,0.0,0.0,0.0,0.0,1,1,0
169,'1',1,1,1,26.450795,14.12215,0.0,0.0,0.0,0.0,1,1,0
170,'1',1,1,1,67.167281,16.112429,0.0,0.0,0.0,0.0,1,1,0
171,'1',1,1,1,87.441688,23.659755,0.0,0.0,0.0,0.0,1,1,0
172,'1',1,1,1,50.32706,15.732955,0.0,0.0,0.0,0.0,1,1,0
173,'1',1,1,1,23.109717,3.1117946,0.0,0.0,0.0,0.0,1,1,0
174,'1',1,1,1,94.210061,47.777398,0.0,0.0,0.0,0.0,1,1,0
175,'1',1,1,1,74.177823,3.0872075,0.0,0.0,0.0,0.0,1,1,0
176,'1',1,1,1,47.450879,29.322723,0.0,0.0,0.0,0.0,1,1,0
177,'1',1,1,1,117.69785,19.246541,0.0,0.0,0.0,0.0,1,1,0
178,'1',1,1,1,126.39181,29.487564,0.0,0.0,0.0,0.0,1,1,0
179,'1',1,1,1,44.45862,12.282538,0.0,0.0,0.0,0.0,1,1,0
180,'1',1,1,1,29.421468,4.4537146,0.0,0.0,0.0,0.0,1,1,0
181,'1',1,1,1,35.422424,6.2624525,0.0,0.0,0.0,0.0,1,1,0
182,'1',1,1,1,66.817029,8.5702631,0.0,0.0,0.0,0.0,1,1,0
183,'1',1,1,1,62.950464,13.151854,0.0,0.0,0.0,0.0,1,1,0
184,'1',1,1,1,61.247701,25.277939,0.0,0.0,0.0,0.0,1,1,0
185,'1',1,1,1,67.6855,2.4950733,0.0,0.0,0.0,0.0,1,1,0
186,'1',1,1,1,62.650011,14.723366,0.0,0.0,0.0,0.0,1,1,0
187,'1',1,1,1,113.3694,50.674942,0.0,0.0,0.0,0.0,1,1,0
188,'1',1,1,1,38.132755,10.592255,0.0,0.0,0.0,0.0,1,1,0
189,'1',1,1,1,28.54494,2.6687506,0.0,0.0,0.0,0.0,1,1,0
192,'1',1,1,1,83.516451,20.158196,0.0,0.0,0.0,0.0,1,1,0
193,'1',1,1,1,44.373915,13.349871,0.0,0.0,0.0,0.0,1,1,0
194,'1',1,1,1,54.40039,13.064429,0.0,0.0,0.0,0.0,1,1,0
195,'1',1,1,1,57.857442,10.537099,0.0,0.0,0.0,0.0,1,1,0
196,'1',1,1,1,46.013858,8.7570541,0.0,0.0,0.0,0.0,1,1,0
197,'1',1,1,1,28.560568,5.3576525,0.0,0.0,0.0,0.0,1,1,0
198,'1',1,1,1,35.384762,13.391935,0.0,0.0,0.0,0.0,1,1,0
199,'1',1,1,1,44.471413,1.6712701,0.0,0.0,0.0,0.0,1,1,0
200,'1',1,1,1,47.285716,12.845717,0.0,0.0,0.0,0.0,1,1,0
201,'1',1,1,1,50.28927,7.1489285,0.0,0.0,0.0,0.0,1,1,0
202,'1',1,1,1,54.649218,5.4155572,0.0,0.0,0.0,0.0,1,1,0
203,'1',1,1,1,70.531328,38.594303,0.0,0.0,0.0,0.0,1,1,0
204,'1',1,1,1,32.236637,8.5926742,0.0,0.0,0.0,0.0,1,1,0
205,'1',1,1,1,36.614596,27.506044,0.0,0.0,0.0,0.0,1,1,0
206,'1',1,1,1,23.064974,7.8456903,0.0,0.0,0.0,0.0,1,1,0
207,'1',1,1,1,54.973661,10.557226,0.0,0.0,0.0,0.0,1,1,0
208,'1',1,1,1,33.394352,6.4108679,0.0,0.0,0.0,0.0,1,1,0
209,'1',1,1,1,71.712957,9.8809867,0.0,0.0,0.0,0.0,1,1,0
210,'1',1,1,1,32.498014,10.931089,0.0,0.0,0.0,0.0,1,1,0
211,'1',1,1,1,31.902009,6.0193204,0.0,0.0,0.0,0.0,1,1,0
212,'1',1,1,1,28.246888,6.2252905,0.0,0.0,0.0,0.0,1,1,0
213,'1',1,1,1,73.850901,15.894065,0.0,0.0,0.0,0.0,1,1,0
214,'1',1,1,1,46.345673,21.73732,0.0,0.0,0.0,0.0,1,1,0
215,'1',1,1,1,38.161518,11.072271,0.0,0.0,0.0,0.0,1,1,0
216,'1',1,1,1,46.577988,12.973564,0.0,0.0,0.0,0.0,1,1,0
217,'1',1,1,1,47.995645,17.965615,0.0,0.0,0.0,0.0,1,1,0
218,'1',1,1,1,47.446415,22.862728,0.0,0.0,0.0,0.0,1,1,0
219,'1',1,1,1,22.205393,5.4772431,0.0,0.0,0.0,0.0,1,1,0
220,'1',1,1,1,26.303433,8.9812176,0.0,0.0,0.0,0.0,1,1,0
221,'1',1,1,1,38.076484,6.7964941,0.0,0.0,0.0,0.0,1,1,0
222,'1',1,1,1,47.169116,12.441446,0.0,0.0,0.0,0.0,1,1,0
...
0 / END OF LOAD DATA BEGIN FIXED SHUNT DATA
59,'1',1,0.0,30.242
116,'1',1,0.0,27.226
132,'1',1,0.0,26.017
135,'1',1,0.0,42.791
138,'1',1,0.0,49.221
156,'1',1,0.0,52.222
176,'1',1,0.0,95.518
214,'1',1,0.0,100.39
218,'1',1,0.0,24.179
226,'1',1,0.0,15.602
235,'1',1,0.0,20.424
240,'1',1,0.0,29.599
245,'1',1,0.0,16.257
248,'1',1,0.0,37.204
259,'1',1,0.0,19.758
0 / END OF FIXED SHUNT DATA BEGIN GENERATOR DATA
272,'1',22.026,13.148547,18.01,-2.298,1.0302993,0,46.9,0.0,1.0,0.0,0.0,1.0,0,1.0,46.9,22.026,1,1.0,0,1.0,0,1.0,0,1.0,0,1.0
275,'1',539.91251,44.741724,326.858,-72.832,1.0073311,0,888.2,0.0,1.0,0.0,0.0,1.0,0,1.0,888.2,146.11,1,1.0,0,1.0,0,1.0,0,1.0,0,1.0
276,'1',888.2,183.83166,326.858,-72.832,1.018,0,888.2,0.0,1.0,0.0,0.0,1.0,1,1.0,888.2,398.234,1,1.0,0,1.0,0,1.0,0,1.0,0,1.0
277,'1',8.5656907,4.4535792,9.6,-1.225,1.042,0,25.0,0.0,1.0,0.0,0.0,1.0,1,1.0,25.0,8.382,1,1.0,0,1.0,0,1.0,0,1.0,0,1.0
277,'2',7.7729847,-1.225,9.6,-1.225,1.042,0,25.0,0.0,1.0,0.0,0.0,1.0,0,1.0,25.0,2.716,1,1.0,0,1.0,0,1.0,0,1.0,0,1.0
277,'3',9.8446907,4.4535792,9.6,-1.225,1.042,0,25.0,0.0,1.0,0.0,0.0,1.0,1,1.0,25.0,9.661,1,1.0,0,1.0,0,1.0,0,1.0,0,1.0
277,'4',8.8346907,4.4535792,9.6,-1.225,1.042,0,25.0,0.0,1.0,0.0,0.0,1.0,1,1.0,25.0,8.651,1,1.0,0,1.0,0,1.0,0,1.0,0,1.0
280,'1',158.7,65.984107,80.778,-17.616,1.0495,0,158.7,0.0,1.0,0.0,0.0,1.0,1,1.0,158.7,78.648,1,1.0,0,1.0,0,1.0,0,1.0,0,1.0
281,'1',100.02801,23.102953,80.778,-17.616,1.036774,0,158.7,0.0,1.0,0.0,0.0,1.0,0,1.0,158.7,68.611,1,1.0,0,1.0,0,1.0,0,1.0,0,1.0
284,'1',136.92311,4.0111236,110.623,-24.124,1.0347744,0,217.33,0.0,1.0,0.0,0.0,1.0,0,1.0,217.333,52.737,1,1.0,0,1.0,0,1.0,0,1.0,0,1.0
285,'1',217.333,23.517752,110.623,-24.124,1.0405,0,217.33,0.0,1.0,0.0,0.0,1.0,1,1.0,217.333,55.415,1,1.0,0,1.0,0,1.0,0,1.0,0,1.0
286,'1',82.816803,-0.28108639,110.623,-24.124,1.0347744,0,217.33,0.0,1.0,0.0,0.0,1.0,0,1.0,217.333,69.243,1,1.0,0,1.0,0,1.0,0,1.0,0,1.0
287,'1',188.38686,21.296235,110.623,-24.124,1.0405,0,217.33,0.0,1.0,0.0,0.0,1.0,1,1.0,217.333,64.598,1,1.0,0,1.0,0,1.0,0,1.0,0,1.0
288,'1',119.98686,18.770652,110.623,-24.124,1.0405,0,217.33,0.0,1.0,0.0,0.0,1.0,1,1.0,217.333,52.424,1,1.0,0,1.0,0,1.0,0,1.0,0,1.0
289,'1',217.333,26.803689,110.623,-24.124,1.0405,0,217.33,0.0,1.0,0.0,0.0,1.0,1,1.0,217.333,27.479,1,1.0,0,1.0,0,1.0,0,1.0,0,1.0
292,'1',0.19263939,0.192,0.192,-0.025,1.033537,0,0.5,0.0,1.0,0.0,0.0,1.0,0,1.0,0.5,0.06,1,1.0,0,1.0,0,1.0,0,1.0,0,1.0
292,'2',0.13798939,0.1085546,0.192,-0.025,1.033537,0,0.5,0.0,1.0,0.0,0.0,1.0,0,1.0,0.5,0.126,1,1.0,0,1.0,0,1.0,0,1.0,0,1.0
294,'1',18.0,9.162,9.162,-1.998,1.0447593,0,18.0,0.0,1.0,0.0,0.0,1.0,1,1.0,18.0,5.517,1,1.0,0,1.0,0,1.0,0,1.0,0,1.0
297,'1',178.467,-5.5707901,90.84,-19.81,1.063,0,178.47,0.0,1.0,0.0,0.0,1.0,1,1.0,178.467,82.766,1,1.0,0,1.0,0,1.0,0,1.0,0,1.0
298,'1',178.467,-2.1583394,90.84,-19.81,1.063,0,178.47,0.0,1.0,0.0,0.0,1.0,1,1.0,178.467,86.66,1,1.0,0,1.0,0,1.0,0,1.0,0,1.0
299,'1',178.467,-7.3061449,90.84,-19.81,1.063,0,178.47,0.0,1.0,0.0,0.0,1.0,1,1.0,178.467,63.99,1,1.0,0,1.0,0,1.0,0,1.0,0,1.0
300,'1',101.74652,-10.14689,90.84,-19.81,1.0645007,0,178.47,0.0,1.0,0.0,0.0,1.0,0,1.0,178.467,63.655,1,1.0,0,1.0,0,1.0,0,1.0,0,1.0
301,'1',178.467,-3.3571904,90.84,-19.81,1.063,0,178.47,0.0,1.0,0.0,0.0,1.0,1,1.0,178.467,54.225,1,1.0,0,1.0,0,1.0,0,1.0,0,1.0
302,'1',178.467,-0.33679321,90.84,-19.81,1.063,0,178.47,0.0,1.0,0.0,0.0,1.0,1,1.0,178.467,63.864,1,1.0,0,1.0,0,1.0,0,1.0,0,1.0
303,'1',17.207965,-1.0392764,25.92,-3.308,1.042993,0,67.5,0.0,1.0,0.0,0.0,1.0,1,1.0,67.5,16.712,1,1.0,0,1.0,0,1.0,0,1.0,0,1.0
303,'2',14.253965,-1.0392764,25.92,-3.308,1.042993,0,67.5,0.0,1.0,0.0,0.0,1.0,1,1.0,67.5,13.758,1,1.0,0,1.0,0,1.0,0,1.0,0,1.0
306,'1',1.7964334,-0.854,3.262,-0.854,1.0508755,0,7.0,0.0,1.0,0.0,0.0,1.0,1,1.0,7.0,1.745,1,1.0,0,1.0,0,1.0,0,1.0,0,1.0
306,'2',3.6523104,-0.854,3.262,-0.854,1.0508755,0,7.0,0.0,1.0,0.0,0.0,1.0,0,1.0,7.0,0.782,1,1.0,0,1.0,0,1.0,0,1.0,0,1.0
307,'1',16.693424,2.0580661,12.941,-1.651,1.04,0,33.7,0.0,1.0,0.0,0.0,1.0,0,1.0,33.7,11.636,1,1.0,0,1.0,0,1.0,0,1.0,0,1.0
307,'2',14.966615,12.941,12.941,-1.651,1.04,0,33.7,0.0,1.0,0.0,0.0,1.0,1,1.0,33.7,14.719,1,1.0,0,1.0,0,1.0,0,1.0,0,1.0
307,'3',22.906557,0.26611778,12.941,-1.651,1.04,0,33.7,0.0,1.0,0.0,0.0,1.0,0,1.0,33.7,6.952,1,1.0,0,1.0,0,1.0,0,1.0,0,1.0
311,'1',1164.667,32.331846,428.597,-95.503,1.0045,0,1164.67,0.0,1.0,0.0,0.0,1.0,1,1.0,1164.667,186.084,1,1.0,0,1.0,0,1.0,0,1.0,0,1.0
312,'1',631.36615,-75.698693,428.597,-95.503,1.0037007,0,1164.67,0.0,1.0,0.0,0.0,1.0,0,1.0,1164.667,454.387,1,1.0,0,1.0,0,1.0,0,1.0,0,1.0
313,'1',1164.667,51.118064,428.597,-95.503,1.0045,0,1164.67,0.0,1.0,0.0,0.0,1.0,1,1.0,1164.667,448.244,1,1.0,0,1.0,0,1.0,0,1.0,0,1.0
316,'1',186.10477,11.364005,169.302,-36.92,1.0408204,0,332.62,0.0,1.0,0.0,0.0,1.0,0,1.0,332.617,142.367,1,1.0,0,1.0,0,1.0,0,1.0,0,1.0
317,'1',217.48397,37.418745,169.302,-36.92,1.0495,0,332.62,0.0,1.0,0.0,0.0,1.0,1,1.0,332.617,38.676,1,1.0,0,1.0,0,1.0,0,1.0,0,1.0
318,'1',157.66397,36.689717,169.302,-36.92,1.0495,0,332.62,0.0,1.0,0.0,0.0,1.0,1,1.0,332.617,36.952,1,1.0,0,1.0,0,1.0,0,1.0,0,1.0
319,'1',186.92397,47.946116,169.302,-36.92,1.0495,0,332.62,0.0,1.0,0.0,0.0,1.0,1,1.0,332.617,85.73,1,1.0,0,1.0,0,1.0,0,1.0,0,1.0
320,'1',254.24397,36.003122,169.302,-36.92,1.0495,0,332.62,0.0,1.0,0.0,0.0,1.0,1,1.0,332.617,130.581,1,1.0,0,1.0,0,1.0,0,1.0,0,1.0
321,'1',151.27602,14.110813,169.302,-36.92,1.0408204,0,332.62,0.0,1.0,0.0,0.0,1.0,0,1.0,332.617,84.68,1,1.0,0,1.0,0,1.0,0,1.0,0,1.0
324,'1',120.0,27.323752,61.08,-13.32,1.054,0,120.0,0.0,1.0,0.0,0.0,1.0,1,1.0,120.0,31.702,1,1.0,0,1.0,0,1.0,0,1.0,0,1.0
325,'1',120.0,26.289568,61.08,-13.32,1.054,0,120.0,0.0,1.0,0.0,0.0,1.0,1,1.0,120.0,52.66,1,1.0,0,1.0,0,1.0,0,1.0,0,1.0
326,'1',120.0,21.793987,61.08,-13.32,1.054,0,120.0,0.0,1.0,0.0,0.0,1.0,1,1.0,120.0,57.831,1,1.0,0,1.0,0,1.0,0,1.0,0,1.0
327,'1',120.0,23.211434,61.08,-13.32,1.054,0,120.0,0.0,1.0,0.0,0.0,1.0,1,1.0,120.0,55.972,1,1.0,0,1.0,0,1.0,0,1.0,0,1.0
328,'1',79.138358,20.120518,61.08,-13.32,1.0444697,0,120.0,0.0,1.0,0.0,0.0,1.0,0,1.0,120.0,48.448,1,1.0,0,1.0,0,1.0,0,1.0,0,1.0
329,'1',120.0,26.054965,61.08,-13.32,1.054,0,120.0,0.0,1.0,0.0,0.0,1.0,1,1.0,120.0,20.655,1,1.0,0,1.0,0,1.0,0,1.0,0,1.0
330,'1',0.26634807,-0.122,0.466,-0.122,1.0373319,0,1.0,0.0,1.0,0.0,0.0,1.0,1,1.0,1.0,0.259,1,1.0,0,1.0,0,1.0,0,1.0,0,1.0
330,'2',0.53247735,-0.122,0.466,-0.122,1.0373319,0,1.0,0.0,1.0,0.0,0.0,1.0,0,1.0,1.0,0.143,1,1.0,0,1.0,0,1.0,0,1.0,0,1.0
330,'3',0.35534807,-0.122,0.466,-0.122,1.0373319,0,1.0,0.0,1.0,0.0,0.0,1.0,1,1.0,1.0,0.348,1,1.0,0,1.0,0,1.0,0,1.0,0,1.0
330,'4',0.41634807,-0.122,0.466,-0.122,1.0373319,0,1.0,0.0,1.0,0.0,0.0,1.0,1,1.0,1.0,0.409,1,1.0,0,1.0,0,1.0,0,1.0,0,1.0
334,'1',30.146001,-8.418,32.154,-8.418,1.0445949,0,69.0,0.0,1.0,0.0,0.0,1.0,0,1.0,69.0,15.846,1,1.0,0,1.0,0,1.0,0,1.0,0,1.0
335,'1',16.753859,-8.418,32.154,-8.418,1.0445949,0,69.0,0.0,1.0,0.0,0.0,1.0,0,1.0,69.0,12.549,1,1.0,0,1.0,0,1.0,0,1.0,0,1.0
338,'1',119.28324,26.578599,119.539,-26.068,1.0437164,0,234.85,0.0,1.0,0.0,0.0,1.0,0,1.0,234.85,113.344,1,1.0,0,1.0,0,1.0,0,1.0,0,1.0
339,'1',181.19559,58.142859,119.539,-26.068,1.0585,0,234.85,0.0,1.0,0.0,0.0,1.0,1,1.0,234.85,96.41,1,1.0,0,1.0,0,1.0,0,1.0,0,1.0
340,'1',234.85,55.297175,119.539,-26.068,1.0585,0,234.85,0.0,1.0,0.0,0.0,1.0,1,1.0,234.85,83.983,1,1.0,0,1.0,0,1.0,0,1.0,0,1.0
341,'1',234.85,46.35975,119.539,-26.068,1.0585,0,234.85,0.0,1.0,0.0,0.0,1.0,1,1.0,234.85,93.839,1,1.0,0,1.0,0,1.0,0,1.0,0,1.0
343,'1',53.376321,2.1271972,83.569,-21.879,1.0451604,0,179.33,0.0,1.0,0.0,0.0,1.0,0,1.0,179.333,41.662,1,1.0,0,1.0,0,1.0,0,1.0,0,1.0
344,'1',44.86033,-0.40507108,83.569,-21.879,1.0451604,0,179.33,0.0,1.0,0.0,0.0,1.0,0,1.0,179.333,38.561,1,1.0,0,1.0,0,1.0,0,1.0,0,1.0
345,'1',81.46365,39.970811,83.569,-21.879,1.054,0,179.33,0.0,1.0,0.0,0.0,1.0,1,1.0,179.333,80.146,1,1.0,0,1.0,0,1.0,0,1.0,0,1.0
346,'1',33.010811,-5.384,24.687,-5.384,1.0473715,0,48.5,0.0,1.0,0.0,0.0,1.0,0,1.0,48.5,17.591,1,1.0,0,1.0,0,1.0,0,1.0,0,1.0
346,'2',48.5,-1.3946207,24.687,-5.384,1.0473715,0,48.5,0.0,1.0,0.0,0.0,1.0,1,1.0,48.5,22.675,1,1.0,0,1.0,0,1.0,0,1.0,0,1.0
347,'1',49.163044,12.207291,28.8,-3.675,1.0174048,0,75.0,0.0,1.0,0.0,0.0,1.0,0,1.0,75.0,36.562,1,1.0,0,1.0,0,1.0,0,1.0,0,1.0
347,'2',45.797733,6.6352076,28.8,-3.675,1.0174048,0,75.0,0.0,1.0,0.0,0.0,1.0,0,1.0,75.0,33.345,1,1.0,0,1.0,0,1.0,0,1.0,0,1.0
347,'3',30.469072,28.8,28.8,-3.675,1.0174048,0,75.0,0.0,1.0,0.0,0.0,1.0,1,1.0,75.0,29.918,1,1.0,0,1.0,0,1.0,0,1.0,0,1.0
350,'1',19.032896,-1.411,11.059,-1.411,1.0499618,0,28.8,0.0,1.0,0.0,0.0,1.0,0,1.0,28.8,6.676,1,1.0,0,1.0,0,1.0,0,1.0,0,1.0
351,'1',14.396612,-1.411,11.059,-1.411,1.0467044,0,28.8,0.0,1.0,0.0,0.0,1.0,1,1.0,28.8,14.185,1,1.0,0,1.0,0,1.0,0,1.0,0,1.0
351,'2',11.403612,-1.411,11.059,-1.411,1.0467044,0,28.8,0.0,1.0,0.0,0.0,1.0,1,1.0,28.8,11.192,1,1.0,0,1.0,0,1.0,0,1.0,0,1.0
351,'3',13.82417,-1.411,11.059,-1.411,1.0467044,0,28.8,0.0,1.0,0.0,0.0,1.0,0,1.0,28.8,10.034,1,1.0,0,1.0,0,1.0,0,1.0,0,1.0
354,'1',110.0,-8.3219217,55.99,-12.21,1.0381656,0,110.0,0.0,1.0,0.0,0.0,1.0,1,1.0,110.0,33.177,1,1.0,0,1.0,0,1.0,0,1.0,0,1.0
356,'1',13.838804,-1.486,11.648,-1.486,1.030398,0,30.33,0.0,1.0,0.0,0.0,1.0,0,1.0,30.333,13.679,1,1.0,0,1.0,0,1.0,0,1.0,0,1.0
356,'2',18.513109,-1.486,11.648,-1.486,1.030398,0,30.33,0.0,1.0,0.0,0.0,1.0,0,1.0,30.333,5.625,1,1.0,0,1.0,0,1.0,0,1.0,0,1.0
356,'3',17.115939,-1.486,11.648,-1.486,1.030398,0,30.33,0.0,1.0,0.0,0.0,1.0,0,1.0,30.333,12.388,1,1.0,0,1.0,0,1.0,0,1.0,0,1.0
357,'1',6.3297697,-1.7675831,9.879,-2.586,1.0605048,0,21.2,0.0,1.0,0.0,0.0,1.0,1,1.0,21.2,6.174,1,1.0,0,1.0,0,1.0,0,1.0,0,1.0
358,'1',28.73488,-1.7850851,20.218,-2.58,1.0273722,0,52.65,0.0,1.0,0.0,0.0,1.0,0,1.0,52.65,20.275,1,1.0,0,1.0,0,1.0,0,1.0,0,1.0
358,'2',30.308978,-2.58,20.218,-2.58,1.0273722,0,52.65,0.0,1.0,0.0,0.0,1.0,0,1.0,52.65,25.147,1,1.0,0,1.0,0,1.0,0,1.0,0,1.0
358,'3',19.782853,20.218,20.218,-2.58,1.0273722,0,52.65,0.0,1.0,0.0,0.0,1.0,1,1.0,52.65,19.396,1,1.0,0,1.0,0,1.0,0,1.0,0,1.0
358,'4',19.232262,-2.58,20.218,-2.58,1.0273722,0,52.65,0.0,1.0,0.0,0.0,1.0,0,1.0,52.65,15.946,1,1.0,0,1.0,0,1.0,0,1.0,0,1.0
359,'1',27.6,12.214464,14.048,-3.064,1.0430395,0,27.6,0.0,1.0,0.0,0.0,1.0,1,1.0,27.6,11.587,1,1.0,0,1.0,0,1.0,0,1.0,0,1.0
359,'2',27.6,12.214464,14.048,-3.064,1.0430395,0,27.6,0.0,1.0,0.0,0.0,1.0,1,1.0,27.6,13.293,1,1.0,0,1.0,0,1.0,0,1.0,0,1.0
362,'1',83.890752,324.81331,328.763,-86.071,1.065,0,705.5,0.0,1.0,0.0,0.0,1.0,1,1.0,705.5,78.707,1,1.0,0,1.0,0,1.0,0,1.0,0,1.0
363,'1',148.17103,-37.386527,328.763,-86.071,1.0429737,0,705.5,0.0,1.0,0.0,0.0,1.0,0,1.0,705.5,78.191,1,1.0,0,1.0,0,1.0,0,1.0,0,1.0
364,'1',384.61914,-19.367803,328.763,-86.071,1.0429737,0,705.5,0.0,1.0,0.0,0.0,1.0,0,1.0,705.5,259.966,1,1.0,0,1.0,0,1.0,0,1.0,0,1.0
365,'1',291.29675,-16.737576,328.763,-86.071,1.04,0,705.5,0.0,1.0,0.0,0.0,1.0,1,1.0,705.5,286.113,1,1.0,0,1.0,0,1.0,0,1.0,0,1.0
367,'1',2.3796264,3.4743381,7.872,-1.005,1.04,0,20.5,0.0,1.0,0.0,0.0,1.0,1,1.0,20.5,2.229,1,1.0,0,1.0,0,1.0,0,1.0,0,1.0
368,'1',9.2016264,2.1467993,7.872,-1.005,1.04,0,20.5,0.0,1.0,0.0,0.0,1.0,1,1.0,20.5,9.051,1,1.0,0,1.0,0,1.0,0,1.0,0,1.0
368,'2',6.4706264,2.1467993,7.872,-1.005,1.04,0,20.5,0.0,1.0,0.0,0.0,1.0,1,1.0,20.5,6.32,1,1.0,0,1.0,0,1.0,0,1.0,0,1.0
369,'1',13.053001,7.872,7.872,-1.005,0.97853296,0,20.5,0.0,1.0,0.0,0.0,1.0,0,1.0,20.5,9.565,1,1.0,0,1.0,0,1.0,0,1.0,0,1.0
371,'1',75.820196,-23.061521,132.437,-34.672,1.0369668,0,284.2,0.0,1.0,0.0,0.0,1.0,1,1.0,284.2,73.732,1,1.0,0,1.0,0,1.0,0,1.0,0,1.0
372,'1',155.52241,-13.19418,132.437,-34.672,1.0482256,0,284.2,0.0,1.0,0.0,0.0,1.0,0,1.0,284.2,133.898,1,1.0,0,1.0,0,1.0,0,1.0,0,1.0
375,'1',21.837219,-0.11181226,12.725,-2.775,1.04,0,25.0,0.0,1.0,0.0,0.0,1.0,0,1.0,25.0,6.759,1,1.0,0,1.0,0,1.0,0,1.0,0,1.0
378,'1',126.20944,-24.798263,117.973,-25.727,1.0080991,0,231.77,0.0,1.0,0.0,0.0,1.0,0,1.0,231.775,65.628,1,1.0,0,1.0,0,1.0,0,1.0,0,1.0
379,'1',134.41296,-7.911204,117.973,-25.727,1.0045,0,231.77,0.0,1.0,0.0,0.0,1.0,1,1.0,231.775,66.661,1,1.0,0,1.0,0,1.0,0,1.0,0,1.0
380,'1',193.33296,-6.3398806,117.973,-25.727,1.0045,0,231.77,0.0,1.0,0.0,0.0,1.0,1,1.0,231.775,31.037,1,1.0,0,1.0,0,1.0,0,1.0,0,1.0
381,'1',118.09511,-18.424056,117.973,-25.727,1.0080991,0,231.77,0.0,1.0,0.0,0.0,1.0,0,1.0,231.775,113.618,1,1.0,0,1.0,0,1.0,0,1.0,0,1.0
382,'1',3.6083724,-0.363,2.842,-0.363,1.0408039,0,7.4,0.0,1.0,0.0,0.0,1.0,1,1.0,7.4,3.554,1,1.0,0,1.0,0,1.0,0,1.0,0,1.0
382,'2',2.9793724,-0.363,2.842,-0.363,1.0408039,0,7.4,0.0,1.0,0.0,0.0,1.0,1,1.0,7.4,2.925,1,1.0,0,1.0,0,1.0,0,1.0,0,1.0
382,'3',4.0493729,-0.363,2.842,-0.363,1.0408039,0,7.4,0.0,1.0,0.0,0.0,1.0,0,1.0,7.4,0.878,1,1.0,0,1.0,0,1.0,0,1.0,0,1.0
382,'4',2.2473724,-0.363,2.842,-0.363,1.0408039,0,7.4,0.0,1.0,0.0,0.0,1.0,1,1.0,7.4,2.193,1,1.0,0,1.0,0,1.0,0,1.0,0,1.0
384,'1',5.2892144,1.169847,5.76,-0.735,1.04,0,15.0,0.0,1.0,0.0,0.0,1.0,1,1.0,15.0,5.179,1,1.0,0,1.0,0,1.0,0,1.0,0,1.0
384,'2',7.4452144,1.169847,5.76,-0.735,1.04,0,15.0,0.0,1.0,0.0,0.0,1.0,1,1.0,15.0,7.335,1,1.0,0,1.0,0,1.0,0,1.0,0,1.0
384,'3',3.2562144,1.169847,5.76,-0.735,1.04,0,15.0,0.0,1.0,0.0,0.0,1.0,1,1.0,15.0,3.146,1,1.0,0,1.0,0,1.0,0,1.0,0,1.0
384,'4',2.4882144,1.169847,5.76,-0.735,1.04,0,15.0,0.0,1.0,0.0,0.0,1.0,1,1.0,15.0,2.378,1,1.0,0,1.0,0,1.0,0,1.0,0,1.0
386,'1',27.969716,-3.299,25.856,-3.299,1.0491964,0,67.33,0.0,1.0,0.0,0.0,1.0,1,1.0,67.333,27.475,1,1.0,0,1.0,0,1.0,0,1.0,0,1.0
386,'2',30.633716,-3.299,25.856,-3.299,1.0491964,0,67.33,0.0,1.0,0.0,0.0,1.0,1,1.0,67.333,30.139,1,1.0,0,1.0,0,1.0,0,1.0,0,1.0
386,'3',26.457131,-3.299,25.856,-3.299,1.0491964,0,67.33,0.0,1.0,0.0,0.0,1.0,0,1.0,67.333,11.032,1,1.0,0,1.0,0,1.0,0,1.0,0,1.0
386,'4',31.063604,-3.299,25.856,-3.299,1.0491964,0,67.33,0.0,1.0,0.0,0.0,1.0,0,1.0,67.333,25.208,1,1.0,0,1.0,0,1.0,0,1.0,0,1.0
386,'5',13.089716,-3.299,25.856,-3.299,1.0491964,0,67.33,0.0,1.0,0.0,0.0,1.0,1,1.0,67.333,12.595,1,1.0,0,1.0,0,1.0,0,1.0,0,1.0
386,'6',30.0592,-3.299,25.856,-3.299,1.0491964,0,67.33,0.0,1.0,0.0,0.0,1.0,0,1.0,67.333,7.468,1,1.0,0,1.0,0,1.0,0,1.0,0,1.0
391,'1',76.348644,72.023,72.023,-15.707,0.98068009,0,141.5,0.0,1.0,0.0,0.0,1.0,0,1.0,141.5,37.246,1,1.0,0,1.0,0,1.0,0,1.0,0,1.0
392,'1',141.5,72.023,72.023,-15.707,0.99869411,0,141.5,0.0,1.0,0.0,0.0,1.0,1,1.0,141.5,45.823,1,1.0,0,1.0,0,1.0,0,1.0,0,1.0
393,'1',98.765357,72.023,72.023,-15.707,0.9694079,0,141.5,0.0,1.0,0.0,0.0,1.0,0,1.0,141.5,59.806,1,1.0,0,1.0,0,1.0,0,1.0,0,1.0
394,'1',141.5,72.023,72.023,-15.707,0.99760811,0,141.5,0.0,1.0,0.0,0.0,1.0,1,1.0,141.5,46.001,1,1.0,0,1.0,0,1.0,0,1.0,0,1.0
395,'1',19.91905,-1.445,11.328,-1.445,1.0288566,0,29.5,0.0,1.0,0.0,0.0,1.0,0,1.0,29.5,8.66,1,1.0,0,1.0,0,1.0,0,1.0,0,1.0
395,'2',20.56343,-1.445,11.328,-1.445,1.0288566,0,29.5,0.0,1.0,0.0,0.0,1.0,0,1.0,29.5,14.002,1,1.0,0,1.0,0,1.0,0,1.0,0,1.0
396,'1',17.477029,-1.445,11.328,-1.445,1.0559128,0,29.5,0.0,1.0,0.0,0.0,1.0,0,1.0,29.5,14.604,1,1.0,0,1.0,0,1.0,0,1.0,0,1.0
396,'2',7.728755,1.5292129,11.328,-1.445,1.0559128,0,29.5,0.0,1.0,0.0,0.0,1.0,1,1.0,29.5,7.512,1,1.0,0,1.0,0,1.0,0,1.0,0,1.0
396,'3',14.111411,-1.445,11.328,-1.445,1.0559128,0,29.5,0.0,1.0,0.0,0.0,1.0,0,1.0,29.5,6.181,1,1.0,0,1.0,0,1.0,0,1.0,0,1.0
396,'4',14.064755,1.5292129,11.328,-1.445,1.0559128,0,29.5,0.0,1.0,0.0,0.0,1.0,1,1.0,29.5,13.848,1,1.0,0,1.0,0,1.0,0,1.0,0,1.0
398,'1',45.572159,1.873414,40.381,-8.806,1.037,0,79.33,0.0,1.0,0.0,0.0,1.0,0,1.0,79.333,28.412,1,1.0,0,1.0,0,1.0,0,1.0,0,1.0
398,'2',79.333,9.2258568,40.381,-8.806,1.037,0,79.33,0.0,1.0,0.0,0.0,1.0,1,1.0,79.333,26.903,1,1.0,0,1.0,0,1.0,0,1.0,0,1.0
398,'3',79.333,9.2258568,40.381,-8.806,1.037,0,79.33,0.0,1.0,0.0,0.0,1.0,1,1.0,79.333,17.147,1,1.0,0,1.0,0,1.0,0,1.0,0,1.0
398,'4',51.862463,3.0500624,40.381,-8.806,1.037,0,79.33,0.0,1.0,0.0,0.0,1.0,0,1.0,79.333,18.276,1,1.0,0,1.0,0,1.0,0,1.0,0,1.0
398,'5',52.035996,4.9325244,40.381,-8.806,1.037,0,79.33,0.0,1.0,0.0,0.0,1.0,0,1.0,79.333,31.607,1,1.0,0,1.0,0,1.0,0,1.0,0,1.0
398,'6',79.333,9.2258568,40.381,-8.806,1.037,0,79.33,0.0,1.0,0.0,0.0,1.0,1,1.0,79.333,27.502,1,1.0,0,1.0,0,1.0,0,1.0,0,1.0
399,'1',0.45542391,-0.074,0.576,-0.074,1.046887,0,1.5,0.0,1.0,0.0,0.0,1.0,0,1.0,1.5,0.226,1,1.0,0,1.0,0,1.0,0,1.0,0,1.0
399,'2',1.3118319,-0.074,0.576,-0.074,1.046887,0,1.5,0.0,1.0,0.0,0.0,1.0,0,1.0,1.5,0.589,1,1.0,0,1.0,0,1.0,0,1.0,0,1.0
401,'1',61.25,-4.561003,31.176,-6.799,1.0459672,0,61.25,0.0,1.0,0.0,0.0,1.0,1,1.0,61.25,22.338,1,1.0,0,1.0,0,1.0,0,1.0,0,1.0
402,'1',32.891814,-6.799,31.176,-6.799,1.0518929,0,61.25,0.0,1.0,0.0,0.0,1.0,0,1.0,61.25,23.864,1,1.0,0,1.0,0,1.0,0,1.0,0,1.0
404,'1',19.832274,-0.79885654,16.32,-2.083,1.0499127,0,42.5,0.0,1.0,0.0,0.0,1.0,1,1.0,42.5,19.52,1,1.0,0,1.0,0,1.0,0,1.0,0,1.0
404,'2',15.845274,-0.79885654,16.32,-2.083,1.0499127,0,42.5,0.0,1.0,0.0,0.0,1.0,1,1.0,42.5,15.533,1,1.0,0,1.0,0,1.0,0,1.0,0,1.0
404,'3',13.325274,-0.79885654,16.32,-2.083,1.0499127,0,42.5,0.0,1.0,0.0,0.0,1.0,1,1.0,42.5,13.013,1,1.0,0,1.0,0,1.0,0,1.0,0,1.0
404,'4',18.781554,-2.083,16.32,-2.083,1.0499127,0,42.5,0.0,1.0,0.0,0.0,1.0,0,1.0,42.5,12.661,1,1.0,0,1.0,0,1.0,0,1.0,0,1.0
407,'1',109.0,13.119456,55.481,-12.099,1.054,0,109.0,0.0,1.0,0.0,0.0,1.0,1,1.0,109.0,18.987,1,1.0,0,1.0,0,1.0,0,1.0,0,1.0
408,'1',109.0,9.5297488,55.481,-12.099,1.054,0,109.0,0.0,1.0,0.0,0.0,1.0,1,1.0,109.0,14.731,1,1.0,0,1.0,0,1.0,0,1.0,0,1.0
409,'1',109.0,8.3416233,55.481,-12.099,1.054,0,109.0,0.0,1.0,0.0,0.0,1.0,1,1.0,109.0,32.57,1,1.0,0,1.0,0,1.0,0,1.0,0,1.0
410,'1',109.0,8.6758951,55.481,-12.099,1.054,0,109.0,0.0,1.0,0.0,0.0,1.0,1,1.0,109.0,22.306,1,1.0,0,1.0,0,1.0,0,1.0,0,1.0
411,'1',109.0,7.9702245,55.481,-12.099,1.054,0,109.0,0.0,1.0,0.0,0.0,1.0,1,1.0,109.0,14.143,1,1.0,0,1.0,0,1.0,0,1.0,0,1.0
412,'1',109.0,8.6506035,55.481,-12.099,1.054,0,109.0,0.0,1.0,0.0,0.0,1.0,1,1.0,109.0,23.483,1,1.0,0,1.0,0,1.0,0,1.0,0,1.0
413,'1',13.479249,6.9619402,20.698,-2.641,1.0353095,0,53.9,0.0,1.0,0.0,0.0,1.0,0,1.0,53.9,11.654,1,1.0,0,1.0,0,1.0,0,1.0,0,1.0
416,'1',70.565089,26.533305,165.029,-43.205,1.009,0,354.14,0.0,1.0,0.0,0.0,1.0,1,1.0,354.14,67.963,1,1.0,0,1.0,0,1.0,0,1.0,0,1.0
417,'1',133.77609,-38.697537,165.029,-43.205,1.0429952,0,354.14,0.0,1.0,0.0,0.0,1.0,1,1.0,354.14,131.174,1,1.0,0,1.0,0,1.0,0,1.0,0,1.0
418,'1',149.88919,-43.205,165.029,-43.205,1.0479001,0,354.14,0.0,1.0,0.0,0.0,1.0,0,1.0,354.14,149.645,1,1.0,0,1.0,0,1.0,0,1.0,0,1.0
419,'1',82.535316,1.4456601,165.029,-43.205,1.0039761,0,354.14,0.0,1.0,0.0,0.0,1.0,0,1.0,354.14,56.643,1,1.0,0,1.0,0,1.0,0,1.0,0,1.0
420,'1',70.503089,18.791147,165.029,-43.205,1.009,0,354.14,0.0,1.0,0.0,0.0,1.0,1,1.0,354.14,67.901,1,1.0,0,1.0,0,1.0,0,1.0,0,1.0
421,'1',51.5,-5.717,26.213,-5.717,1.0411687,0,51.5,0.0,1.0,0.0,0.0,1.0,1,1.0,51.5,24.828,1,1.0,0,1.0,0,1.0,0,1.0,0,1.0
421,'2',51.5,-5.717,26.213,-5.717,1.0411687,0,51.5,0.0,1.0,0.0,0.0,1.0,1,1.0,51.5,23.937,1,1.0,0,1.0,0,1.0,0,1.0,0,1.0
424,'1',114.78086,-2.2778566,125.82,-32.94,1.0585,0,270.0,0.0,1.0,0.0,0.0,1.0,1,1.0,270.0,112.797,1,1.0,0,1.0,0,1.0,0,1.0,0,1.0
425,'1',89.773635,-3.3690643,125.82,-32.94,1.059051,0,270.0,0.0,1.0,0.0,0.0,1.0,0,1.0,270.0,87.627,1,1.0,0,1.0,0,1.0,0,1.0,0,1.0
426,'1',159.15931,-20.567709,125.82,-32.94,1.0458128,0,270.0,0.0,1.0,0.0,0.0,1.0,0,1.0,270.0,102.816,1,1.0,0,1.0,0,1.0,0,1.0,0,1.0
427,'1',101.82786,-3.1251408,125.82,-32.94,1.0585,0,270.0,0.0,1.0,0.0,0.0,1.0,1,1.0,270.0,99.844,1,1.0,0,1.0,0,1.0,0,1.0,0,1.0
428,'1',69.93686,-2.764983,125.82,-32.94,1.0585,0,270.0,0.0,1.0,0.0,0.0,1.0,1,1.0,270.0,67.953,1,1.0,0,1.0,0,1.0,0,1.0,0,1.0
431,'1',124.16322,42.816739,114.525,-24.975,1.0135,0,225.0,0.0,1.0,0.0,0.0,1.0,1,1.0,225.0,54.19,1,1.0,0,1.0,0,1.0,0,1.0,0,1.0
432,'1',115.57213,26.834031,114.525,-24.975,0.99823644,0,225.0,0.0,1.0,0.0,0.0,1.0,0,1.0,225.0,108.754,1,1.0,0,1.0,0,1.0,0,1.0,0,1.0
433,'1',225.0,43.481124,114.525,-24.975,1.0135,0,225.0,0.0,1.0,0.0,0.0,1.0,1,1.0,225.0,75.67,1,1.0,0,1.0,0,1.0,0,1.0,0,1.0
434,'1',172.28322,58.485841,114.525,-24.975,1.0135,0,225.0,0.0,1.0,0.0,0.0,1.0,1,1.0,225.0,89.064,1,1.0,0,1.0,0,1.0,0,1.0,0,1.0
437,'1',131.01815,88.670097,114.83,-25.042,0.97573636,0,225.6,0.0,1.0,0.0,0.0,1.0,0,1.0,225.6,110.17,1,1.0,0,1.0,0,1.0,0,1.0,0,1.0
438,'1',94.808151,112.37778,114.83,-25.042,0.97573636,0,225.6,0.0,1.0,0.0,0.0,1.0,0,1.0,225.6,58.277,1,1.0,0,1.0,0,1.0,0,1.0,0,1.0
439,'1',145.99762,111.66455,114.83,-25.042,1.0067204,0,225.6,0.0,1.0,0.0,0.0,1.0,1,1.0,225.6,90.164,1,1.0,0,1.0,0,1.0,0,1.0,0,1.0
440,'1',149.73762,112.11307,114.83,-25.042,1.0068042,0,225.6,0.0,1.0,0.0,0.0,1.0,1,1.0,225.6,31.8,1,1.0,0,1.0,0,1.0,0,1.0,0,1.0
441,'1',11.647744,4.2311966,16.397,-2.092,1.04,0,42.7,0.0,1.0,0.0,0.0,1.0,1,1.0,42.7,11.334,1,1.0,0,1.0,0,1.0,0,1.0,0,1.0
441,'2',18.189744,4.2311966,16.397,-2.092,1.04,0,42.7,0.0,1.0,0.0,0.0,1.0,1,1.0,42.7,17.876,1,1.0,0,1.0,0,1.0,0,1.0,0,1.0
441,'3',16.008744,4.2311966,16.397,-2.092,1.04,0,42.7,0.0,1.0,0.0,0.0,1.0,1,1.0,42.7,15.695,1,1.0,0,1.0,0,1.0,0,1.0,0,1.0
443,'1',2.2162089,0.0042243146,1.527,-0.333,1.04,0,3.0,0.0,1.0,0.0,0.0,1.0,0,1.0,3.0,1.43,1,1.0,0,1.0,0,1.0,0,1.0,0,1.0
443,'2',3.0,0.16383318,1.527,-0.333,1.04,0,3.0,0.0,1.0,0.0,0.0,1.0,1,1.0,3.0,0.466,1,1.0,0,1.0,0,1.0,0,1.0,0,1.0
444,'1',2.041703,0.61651407,1.527,-0.333,1.0474597,0,3.0,0.0,1.0,0.0,0.0,1.0,0,1.0,3.0,1.141,1,1.0,0,1.0,0,1.0,0,1.0,0,1.0
444,'2',3.0,1.5239594,1.527,-0.333,1.0474597,0,3.0,0.0,1.0,0.0,0.0,1.0,1,1.0,3.0,1.295,1,1.0,0,1.0,0,1.0,0,1.0,0,1.0
448,'1',202.73428,-18.567807,132.036,-34.567,1.0449046,0,283.34,0.0,1.0,0.0,0.0,1.0,0,1.0,283.34,129.582,1,1.0,0,1.0,0,1.0,0,1.0,0,1.0
449,'1',139.83188,-15.42821,132.036,-34.567,1.04,0,283.34,0.0,1.0,0.0,0.0,1.0,1,1.0,283.34,137.75,1,1.0,0,1.0,0,1.0,0,1.0,0,1.0
450,'1',115.40088,132.036,132.036,-34.567,1.0142505,0,283.34,0.0,1.0,0.0,0.0,1.0,1,1.0,283.34,113.319,1,1.0,0,1.0,0,1.0,0,1.0,0,1.0
451,'1',88.724898,112.57164,132.036,-34.567,0.97768852,0,283.34,0.0,1.0,0.0,0.0,1.0,0,1.0,283.34,84.208,1,1.0,0,1.0,0,1.0,0,1.0,0,1.0
452,'1',74.972242,132.036,132.036,-34.567,0.97768852,0,283.34,0.0,1.0,0.0,0.0,1.0,0,1.0,283.34,66.152,1,1.0,0,1.0,0,1.0,0,1.0,0,1.0
453,'1',11.714547,8.4372011,9.331,-1.191,1.029407,0,24.3,0.0,1.0,0.0,0.0,1.0,1,1.0,24.3,11.536,1,1.0,0,1.0,0,1.0,0,1.0,0,1.0
453,'2',13.043307,-1.191,9.331,-1.191,1.029407,0,24.3,0.0,1.0,0.0,0.0,1.0,0,1.0,24.3,10.913,1,1.0,0,1.0,0,1.0,0,1.0,0,1.0
453,'3',14.054088,1.0832134,9.331,-1.191,1.029407,0,24.3,0.0,1.0,0.0,0.0,1.0,0,1.0,24.3,9.205,1,1.0,0,1.0,0,1.0,0,1.0,0,1.0
456,'1',187.0,94.937954,95.183,-20.757,1.0109688,0,187.0,0.0,1.0,0.0,0.0,1.0,1,1.0,187.0,76.093,1,1.0,0,1.0,0,1.0,0,1.0,0,1.0
457,'1',71.423218,27.114846,95.183,-20.757,0.98333864,0,187.0,0.0,1.0,0.0,0.0,1.0,0,1.0,187.0,45.01,1,1.0,0,1.0,0,1.0,0,1.0,0,1.0
458,'1',134.47434,76.101844,95.183,-20.757,0.97190447,0,187.0,0.0,1.0,0.0,0.0,1.0,0,1.0,187.0,30.393,1,1.0,0,1.0,0,1.0,0,1.0,0,1.0
459,'1',110.55244,63.45083,95.183,-20.757,0.97758812,0,187.0,0.0,1.0,0.0,0.0,1.0,0,1.0,187.0,76.131,1,1.0,0,1.0,0,1.0,0,1.0,0,1.0
462,'1',160.10756,13.81987,139.602,-30.444,1.0045,0,274.27,0.0,1.0,0.0,0.0,1.0,1,1.0,274.267,109.757,1,1.0,0,1.0,0,1.0,0,1.0,0,1.0
463,'1',127.8459,-8.7785248,139.602,-30.444,1.0012789,0,274.27,0.0,1.0,0.0,0.0,1.0,0,1.0,274.267,78.369,1,1.0,0,1.0,0,1.0,0,1.0,0,1.0
464,'1',146.84523,13.089651,139.602,-30.444,1.0045,0,274.27,0.0,1.0,0.0,0.0,1.0,1,1.0,274.267,58.535,1,1.0,0,1.0,0,1.0,0,1.0,0,1.0
466,'1',10.756528,9.696,9.696,-1.237,1.0466532,0,25.25,0.0,1.0,0.0,0.0,1.0,1,1.0,25.25,10.571,1,1.0,0,1.0,0,1.0,0,1.0,0,1.0
466,'2',6.3631287,7.1933141,9.696,-1.237,1.0466532,0,25.25,0.0,1.0,0.0,0.0,1.0,0,1.0,25.25,5.746,1,1.0,0,1.0,0,1.0,0,1.0,0,1.0
470,'1',261.31667,-14.820839,262.125,-68.625,1.0391246,0,562.5,0.0,1.0,0.0,0.0,1.0,0,1.0,562.5,183.095,1,1.0,0,1.0,0,1.0,0,1.0,0,1.0
471,'1',94.879041,2.924065,262.125,-68.625,1.04,0,562.5,0.0,1.0,0.0,0.0,1.0,1,1.0,562.5,90.746,1,1.0,0,1.0,0,1.0,0,1.0,0,1.0
472,'1',12.909642,-2.719,12.471,-2.719,1.0440501,0,24.5,0.0,1.0,0.0,0.0,1.0,0,1.0,24.5,7.711,1,1.0,0,1.0,0,1.0,0,1.0,0,1.0
472,'2',24.5,-2.1530379,12.471,-2.719,1.0440501,0,24.5,0.0,1.0,0.0,0.0,1.0,1,1.0,24.5,10.439,1,1.0,0,1.0,0,1.0,0,1.0,0,1.0
475,'1',15.115845,-1.431,11.213,-1.431,1.0615004,0,29.2,0.0,1.0,0.0,0.0,1.0,0,1.0,29.2,9.221,1,1.0,0,1.0,0,1.0,0,1.0,0,1.0
475,'2',11.976687,-1.431,11.213,-1.431,1.0615004,0,29.2,0.0,1.0,0.0,0.0,1.0,0,1.0,29.2,4.224,1,1.0,0,1.0,0,1.0,0,1.0,0,1.0
476,'1',14.148551,2.4667308,11.213,-1.431,1.0695,0,29.2,0.0,1.0,0.0,0.0,1.0,1,1.0,29.2,13.934,1,1.0,0,1.0,0,1.0,0,1.0,0,1.0
478,'1',25.501324,-5.472,25.094,-5.472,1.0501434,0,49.3,0.0,1.0,0.0,0.0,1.0,0,1.0,49.3,19.901,1,1.0,0,1.0,0,1.0,0,1.0,0,1.0
478,'2',25.541142,-5.472,25.094,-5.472,1.0501434,0,49.3,0.0,1.0,0.0,0.0,1.0,0,1.0,49.3,19.103,1,1.0,0,1.0,0,1.0,0,1.0,0,1.0
481,'1',157.11086,46.863778,187.593,-49.112,1.04,0,402.56,0.0,1.0,0.0,0.0,1.0,1,1.0,402.56,154.153,1,1.0,0,1.0,0,1.0,0,1.0,0,1.0
482,'1',183.12836,112.99408,187.593,-49.112,1.0294967,0,402.56,0.0,1.0,0.0,0.0,1.0,0,1.0,402.56,86.185,1,1.0,0,1.0,0,1.0,0,1.0,0,1.0
483,'1',192.04286,51.914914,187.593,-49.112,1.04,0,402.56,0.0,1.0,0.0,0.0,1.0,1,1.0,402.56,189.085,1,1.0,0,1.0,0,1.0,0,1.0,0,1.0
484,'1',206.78053,8.4917032,187.593,-49.112,1.0294967,0,402.56,0.0,1.0,0.0,0.0,1.0,0,1.0,402.56,113.904,1,1.0,0,1.0,0,1.0,0,1.0,0,1.0
485,'1',59.849861,130.42811,187.593,-49.112,1.055,0,402.56,0.0,1.0,0.0,0.0,1.0,1,1.0,402.56,56.892,1,1.0,0,1.0,0,1.0,0,1.0,0,1.0
486,'1',9.5014937,-1.413,11.072,-1.413,1.0469903,0,28.83,0.0,1.0,0.0,0.0,1.0,0,1.0,28.833,3.64,1,1.0,0,1.0,0,1.0,0,1.0,0,1.0
486,'2',12.767832,0.4727432,11.072,-1.413,1.0469903,0,28.83,0.0,1.0,0.0,0.0,1.0,1,1.0,28.833,12.556,1,1.0,0,1.0,0,1.0,0,1.0,0,1.0
486,'3',13.871832,0.4727432,11.072,-1.413,1.0469903,0,28.83,0.0,1.0,0.0,0.0,1.0,1,1.0,28.833,13.66,1,1.0,0,1.0,0,1.0,0,1.0,0,1.0
...
0 / END OF GENERATOR DATA BEGIN BRANCH DATA
2,212,'1',0.0154525,0.0792528,0.0268017,239.94,239.94,239.94,0.0,0.0,0.0,0.0,1,1,0.0,1,1.0,0,1.0,0,1.0,0,1.0
3,53,'1',0.00358046,0.0258456,0.0131628,260.03,260.03,260.03,0.0,0.0,0.0,0.0,1,1,0.0,1,1.0,0,1.0,0,1.0,0,1.0
3,53,'2',0.00358046,0.0258456,0.0131628,260.03,260.03,260.03,0.0,0.0,0.0,0.0,1,1,0.0,1,1.0,0,1.0,0,1.0,0,1.0
3,213,'1',0.00319977,0.0219502,0.0125158,256.59,256.59,256.59,0.0,0.0,0.0,0.0,1,1,0.0,1,1.0,0,1.0,0,1.0,0,1.0
4,5,'1',0.00696197,0.0360534,0.0111497,218.77,218.77,218.77,0.0,0.0,0.0,0.0,1,1,0.0,1,1.0,0,1.0,0,1.0,0,1.0
4,331,'1',0.00775811,0.0380507,0.0134745,227.23,227.23,227.23,0.0,0.0,0.0,0.0,1,1,0.0,1,1.0,0,1.0,0,1.0,0,1.0
5,331,'1',0.00487853,0.02675,0.00815727,198.63,198.63,198.63,0.0,0.0,0.0,0.0,1,1,0.0,1,1.0,0,1.0,0,1.0,0,1.0
5,351,'1',0.0124676,0.0654224,0.0163807,269.59,269.59,269.59,0.0,0.0,0.0,0.0,1,1,0.0,1,1.0,0,1.0,0,1.0,0,1.0
6,331,'1',0.0051151,0.0236629,0.0391647,336.94,336.94,336.94,0.0,0.0,0.0,0.0,1,1,0.0,1,1.0,0,1.0,0,1.0,0,1.0
8,461,'1',0.00268087,0.0132507,0.00588479,232.73,232.73,232.73,0.0,0.0,0.0,0.0,1,1,0.0,1,1.0,0,1.0,0,1.0,0,1.0
10,11,'1',0.0133436,0.0919039,0.0115271,212.51,212.51,212.51,0.0,0.0,0.0,0.0,1,1,0.0,1,1.0,0,1.0,0,1.0,0,1.0
10,406,'1',0.00631471,0.0440302,0.0307124,216.36,216.36,216.36,0.0,0.0,0.0,0.0,1,1,0.0,1,1.0,0,1.0,0,1.0,0,1.0
11,58,'1',0.0286556,0.128792,0.0377904,204.21,204.21,204.21,0.0,0.0,0.0,0.0,1,1,0.0,1,1.0,0,1.0,0,1.0,0,1.0
12,10,'1',0.00363287,0.0200568,0.0589258,206.37,206.37,206.37,0.0,0.0,0.0,0.0,1,1,0.0,1,1.0,0,1.0,0,1.0,0,1.0
12,406,'1',0.00340925,0.0206369,0.0061444,233.32,233.32,233.32,0.0,0.0,0.0,0.0,1,1,0.0,1,1.0,0,1.0,0,1.0,0,1.0
13,17,'1',0.0100597,0.0575367,0.0312509,227.86,227.86,227.86,0.0,0.0,0.0,0.0,1,1,0.0,1,1.0,0,1.0,0,1.0,0,1.0
14,156,'1',0.00832308,0.0444584,0.0151703,264.27,264.27,264.27,0.0,0.0,0.0,0.0,1,1,0.0,1,1.0,0,1.0,0,1.0,0,1.0
15,55,'1',0.0113961,0.0625895,0.0161825,218.52,218.52,218.52,0.0,0.0,0.0,0.0,1,1,0.0,1,1.0,0,1.0,0,1.0,0,1.0
16,162,'1',0.012951,0.0665246,0.0176437,224.35,224.35,224.35,0.0,0.0,0.0,0.0,1,1,0.0,1,1.0,0,1.0,0,1.0,0,1.0
16,304,'1',0.00759675,0.0410247,0.0264718,236.54,236.54,236.54,0.0,0.0,0.0,0.0,1,1,0.0,1,1.0,0,1.0,0,1.0,0,1.0
18,19,'1',0.0106007,0.0397642,0.0085879,245.27,245.27,245.27,0.0,0.0,0.0,0.0,0,1,0.0,1,1.0,0,1.0,0,1.0,0,1.0
18,81,'1',0.00978753,0.0448943,0.023169,223.47,223.47,223.47,0.0,0.0,0.0,0.0,1,1,0.0,1,1.0,0,1.0,0,1.0,0,1.0
18,310,'1',0.004373,0.0260086,0.0242791,277.5,277.5,277.5,0.0,0.0,0.0,0.0,1,1,0.0,1,1.0,0,1.0,0,1.0,0,1.0
18,310,'2',0.004373,0.0260086,0.0242791,277.5,277.5,277.5,0.0,0.0,0.0,0.0,1,1,0.0,1,1.0,0,1.0,0,1.0,0,1.0
19,141,'1',0.00579211,0.0290206,0.0189553,251.0,251.0,251.0,0.0,0.0,0.0,0.0,1,1,0.0,1,1.0,0,1.0,0,1.0,0,1.0
19,436,'1',0.00397383,0.0271653,0.0337435,212.6,212.6,212.6,0.0,0.0,0.0,0.0,1,1,0.0,1,1.0,0,1.0,0,1.0,0,1.0
20,22,'1',0.000207968,0.00111847,0.0,99999.0,99999.0,99999.0,0.0,0.0,0.0,0.0,1,1,0.0,1,1.0,0,1.0,0,1.0,0,1.0
21,23,'1',0.00250938,0.0172465,0.0313608,248.08,248.08,248.08,0.0,0.0,0.0,0.0,1,1,0.0,1,1.0,0,1.0,0,1.0,0,1.0
22,295,'1',0.0015308,0.016473,0.364525,1075.02,1075.02,1075.02,0.0,0.0,0.0,0.0,1,1,0.0,1,1.0,0,1.0,0,1.0,0,1.0
22,405,'1',0.002026,0.028747,1.00897,1001.46,1001.46,1001.46,0.0,0.0,0.0,0.0,1,1,0.0,1,1.0,0,1.0,0,1.0,0,1.0
23,179,'1',0.008727,0.054891,0.034891,236.33,236.33,236.33,0.0,0.0,0.0,0.0,1,1,0.0,1,1.0,0,1.0,0,1.0,0,1.0
24,4,'1',0.00353554,0.0227525,0.0272812,241.53,241.53,241.53,0.0,0.0,0.0,0.0,1,1,0.0,1,1.0,0,1.0,0,1.0,0,1.0
24,56,'1',0.00957472,0.0499942,0.0131242,244.03,244.03,244.03,0.0,0.0,0.0,0.0,1,1,0.0,1,1.0,0,1.0,0,1.0,0,1.0
25,27,'1',0.000257042,0.00119754,0.0,99999.0,99999.0,99999.0,0.0,0.0,0.0,0.0,1,1,0.0,1,1.0,0,1.0,0,1.0,0,1.0
25,314,'1',0.00158469,0.0214403,0.275456,1151.39,1151.39,1151.39,0.0,0.0,0.0,0.0,1,1,0.0,1,1.0,0,1.0,0,1.0,0,1.0
28,29,'1',0.0121765,0.0608641,0.0130017,207.91,207.91,207.91,0.0,0.0,0.0,0.0,1,1,0.0,1,1.0,0,1.0,0,1.0,0,1.0
28,30,'1',0.00432531,0.0200998,0.00802657,230.9,230.9,230.9,0.0,0.0,0.0,0.0,1,1,0.0,1,1.0,0,1.0,0,1.0,0,1.0
29,356,'1',0.00799791,0.0387782,0.0352203,188.9,188.9,188.9,0.0,0.0,0.0,0.0,1,1,0.0,1,1.0,0,1.0,0,1.0,0,1.0
30,26,'1',0.00666488,0.0320152,0.0220243,304.68,304.68,304.68,0.0,0.0,0.0,0.0,1,1,0.0,1,1.0,0,1.0,0,1.0,0,1.0
31,228,'1',0.008946,0.057044,0.025829,280.0,280.0,280.0,0.0,0.0,0.0,0.0,1,1,0.0,1,1.0,0,1.0,0,1.0,0,1.0
31,296,'1',0.00518286,0.0326049,0.0584572,358.79,358.79,358.79,0.0,0.0,0.0,0.0,1,1,0.0,1,1.0,0,1.0,0,1.0,0,1.0
31,415,'1',0.0113363,0.0554702,0.0432148,231.46,231.46,231.46,0.0,0.0,0.0,0.0,1,1,0.0,1,1.0,0,1.0,0,1.0,0,1.0
33,32,'1',0.00681448,0.0338755,0.0131701,196.59,196.59,196.59,0.0,0.0,0.0,0.0,1,1,0.0,1,1.0,0,1.0,0,1.0,0,1.0
34,33,'1',0.00341126,0.0247052,0.0295283,270.99,270.99,270.99,0.0,0.0,0.0,0.0,1,1,0.0,1,1.0,0,1.0,0,1.0,0,1.0
34,33,'2',0.00341126,0.0247052,0.0295283,270.99,270.99,270.99,0.0,0.0,0.0,0.0,1,1,0.0,1,1.0,0,1.0,0,1.0,0,1.0
35,40,'1',0.00293506,0.0185201,0.00990083,228.32,228.32,228.32,0.0,0.0,0.0,0.0,1,1,0.0,1,1.0,0,1.0,0,1.0,0,1.0
35,42,'1',0.00449505,0.0326042,0.0129473,276.08,276.08,276.08,0.0,0.0,0.0,0.0,1,1,0.0,1,1.0,0,1.0,0,1.0,0,1.0
36,2,'1',0.00289863,0.0167658,0.0148842,188.66,188.66,188.66,0.0,0.0,0.0,0.0,1,1,0.0,1,1.0,0,1.0,0,1.0,0,1.0
36,33,'1',0.00284038,0.0206656,0.011617,213.45,213.45,213.45,0.0,0.0,0.0,0.0,1,1,0.0,1,1.0,0,1.0,0,1.0,0,1.0
37,35,'1',0.00780774,0.0366615,0.0156035,218.76,218.76,218.76,0.0,0.0,0.0,0.0,1,1,0.0,1,1.0,0,1.0,0,1.0,0,1.0
37,44,'1',0.00830767,0.0554788,0.0311844,200.99,200.99,200.99,0.0,0.0,0.0,0.0,1,1,0.0,1,1.0,0,1.0,0,1.0,0,1.0
38,39,'1',0.00316109,0.0157664,0.019275,252.83,252.83,252.83,0.0,0.0,0.0,0.0,1,1,0.0,1,1.0,0,1.0,0,1.0,0,1.0
38,49,'1',0.0106902,0.0689767,0.0297214,204.2,204.2,204.2,0.0,0.0,0.0,0.0,1,1,0.0,1,1.0,0,1.0,0,1.0,0,1.0
39,35,'1',0.00384653,0.022595,0.0115165,259.81,259.81,259.81,0.0,0.0,0.0,0.0,1,1,0.0,1,1.0,0,1.0,0,1.0,0,1.0
39,35,'2',0.00384653,0.022595,0.0115165,259.81,259.81,259.81,0.0,0.0,0.0,0.0,1,1,0.0,1,1.0,0,1.0,0,1.0,0,1.0
39,361,'1',0.00410223,0.0323982,0.0223687,296.76,296.76,296.76,0.0,0.0,0.0,0.0,1,1,0.0,1,1.0,0,1.0,0,1.0,0,1.0
39,361,'2',0.00410223,0.0323982,0.0223687,296.76,296.76,296.76,0.0,0.0,0.0,0.0,1,1,0.0,1,1.0,0,1.0,0,1.0,0,1.0
39,361,'3',0.00410223,0.0323982,0.0223687,296.76,296.76,296.76,0.0,0.0,0.0,0.0,1,1,0.0,1,1.0,0,1.0,0,1.0,0,1.0
41,43,'1',0.000233031,0.00104503,0.0,99999.0,99999.0,99999.0,0.0,0.0,0.0,0.0,1,1,0.0,1,1.0,0,1.0,0,1.0,0,1.0
42,40,'1',0.00435644,0.0248836,0.0126137,308.21,308.21,308.21,0.0,0.0,0.0,0.0,1,1,0.0,1,1.0,0,1.0,0,1.0,0,1.0
43,54,'1',0.00111725,0.0133249,0.292213,1210.87,1210.87,1210.87,0.0,0.0,0.0,0.0,1,1,0.0,1,1.0,0,1.0,0,1.0,0,1.0
43,498,'1',0.00161178,0.0198636,0.286039,1210.03,1210.03,1210.03,0.0,0.0,0.0,0.0,1,1,0.0,1,1.0,0,1.0,0,1.0,0,1.0
44,42,'1',0.00483059,0.022229,0.00975406,240.21,240.21,240.21,0.0,0.0,0.0,0.0,1,1,0.0,1,1.0,0,1.0,0,1.0,0,1.0
45,36,'1',0.00469767,0.0323288,0.00954514,196.67,196.67,196.67,0.0,0.0,0.0,0.0,1,1,0.0,1,1.0,0,1.0,0,1.0,0,1.0
45,37,'1',0.00411194,0.0226471,0.0067485,223.09,223.09,223.09,0.0,0.0,0.0,0.0,1,1,0.0,1,1.0,0,1.0,0,1.0,0,1.0
46,45,'1',0.0023403,0.0128024,0.0123531,401.85,401.85,401.85,0.0,0.0,0.0,0.0,1,1,0.0,1,1.0,0,1.0,0,1.0,0,1.0
46,50,'1',0.00351582,0.0151322,0.0225659,213.18,213.18,213.18,0.0,0.0,0.0,0.0,1,1,0.0,1,1.0,0,1.0,0,1.0,0,1.0
46,51,'1',0.00390017,0.0201794,0.0263679,290.75,290.75,290.75,0.0,0.0,0.0,0.0,1,1,0.0,1,1.0,0,1.0,0,1.0,0,1.0
46,51,'2',0.00390017,0.0201794,0.0263679,290.75,290.75,290.75,0.0,0.0,0.0,0.0,1,1,0.0,1,1.0,0,1.0,0,1.0,0,1.0
46,214,'1',0.00565635,0.0285577,0.0458282,324.34,324.34,324.34,0.0,0.0,0.0,0.0,1,1,0.0,1,1.0,0,1.0,0,1.0,0,1.0
47,40,'1',0.00542345,0.0298445,0.00973297,209.65,209.65,209.65,0.0,0.0,0.0,0.0,1,1,0.0,1,1.0,0,1.0,0,1.0,0,1.0
48,50,'1',0.00493315,0.0197057,0.0266381,231.0,231.0,231.0,0.0,0.0,0.0,0.0,1,1,0.0,1,1.0,0,1.0,0,1.0,0,1.0
48,480,'1',0.0141266,0.063385,0.013796,270.01,270.01,270.01,0.0,0.0,0.0,0.0,1,1,0.0,1,1.0,0,1.0,0,1.0,0,1.0
49,47,'1',0.00274605,0.0168842,0.011861,210.29,210.29,210.29,0.0,0.0,0.0,0.0,1,1,0.0,1,1.0,0,1.0,0,1.0,0,1.0
50,49,'1',0.00420333,0.0189576,0.00848235,263.28,263.28,263.28,0.0,0.0,0.0,0.0,1,1,0.0,1,1.0,0,1.0,0,1.0,0,1.0
50,51,'1',0.00306979,0.0198041,0.0129611,299.51,299.51,299.51,0.0,0.0,0.0,0.0,1,1,0.0,1,1.0,0,1.0,0,1.0,0,1.0
51,48,'1',0.00285314,0.0207706,0.0111933,206.03,206.03,206.03,0.0,0.0,0.0,0.0,1,1,0.0,1,1.0,0,1.0,0,1.0,0,1.0
51,70,'1',0.00927047,0.0420854,0.0202396,302.02,302.02,302.02,0.0,0.0,0.0,0.0,1,1,0.0,1,1.0,0,1.0,0,1.0,0,1.0
51,357,'1',0.00606199,0.0375019,0.0462067,281.97,281.97,281.97,0.0,0.0,0.0,0.0,1,1,0.0,1,1.0,0,1.0,0,1.0,0,1.0
51,357,'2',0.00606199,0.0375019,0.0462067,281.97,281.97,281.97,0.0,0.0,0.0,0.0,1,1,0.0,1,1.0,0,1.0,0,1.0,0,1.0
51,357,'3',0.00606199,0.0375019,0.0462067,281.97,281.97,281.97,0.0,0.0,0.0,0.0,1,1,0.0,1,1.0,0,1.0,0,1.0,0,1.0
52,54,'1',0.000209023,0.00101092,0.0,99999.0,99999.0,99999.0,0.0,0.0,0.0,0.0,1,1,0.0,1,1.0,0,1.0,0,1.0,0,1.0
53,32,'1',0.00540244,0.030335,0.00829098,226.77,226.77,226.77,0.0,0.0,0.0,0.0,0,1,0.0,1,1.0,0,1.0,0,1.0,0,1.0
53,36,'1',0.00511899,0.0318872,0.0170703,230.21,230.21,230.21,0.0,0.0,0.0,0.0,1,1,0.0,1,1.0,0,1.0,0,1.0,0,1.0
53,45,'1',0.00448796,0.0251172,0.0179586,273.78,273.78,273.78,0.0,0.0,0.0,0.0,1,1,0.0,1,1.0,0,1.0,0,1.0,0,1.0
53,45,'2',0.00448796,0.0251172,0.0179586,273.78,273.78,273.78,0.0,0.0,0.0,0.0,1,1,0.0,1,1.0,0,1.0,0,1.0,0,1.0
...